
 Fire Dynamics Simulator

 Current Date     : February 23, 2017  15:29:03
 Version          : FDS 6.5.3
 Revision         : FDS6.5.3-801-ga75adfa
 Revision Date    : Mon Feb 20 14:43:26 2017 -0500
 Compilation Date : Feb 21, 2017  14:05:49

 MPI Disabled
 OpenMP Enabled; Number of OpenMP Threads:   4

 Job TITLE        : room fire
 Job ID string    : room


 Grid Dimensions, Mesh     1

   Cells in the X Direction            25
   Cells in the Y Direction            32
   Cells in the Z Direction            31


 Physical Dimensions, Mesh     1

   Length (m)                     250.000
   Width  (m)                     320.000
   Height (m)                     310.000
   Initial Time Step (s)            0.180

 Grid Dimensions, Mesh     2

   Cells in the X Direction             4
   Cells in the Y Direction             8
   Cells in the Z Direction            19


 Physical Dimensions, Mesh     2

   Length (m)                      40.000
   Width  (m)                      80.000
   Height (m)                     190.000
   Initial Time Step (s)            0.180

 Grid Dimensions, Mesh     3

   Cells in the X Direction            20
   Cells in the Y Direction            40
   Cells in the Z Direction            60


 Physical Dimensions, Mesh     3

   Length (m)                      40.000
   Width  (m)                      80.000
   Height (m)                     120.000
   Initial Time Step (s)            0.180

 Grid Dimensions, Mesh     4

   Cells in the X Direction             4
   Cells in the Y Direction            12
   Cells in the Z Direction            31


 Physical Dimensions, Mesh     4

   Length (m)                      40.000
   Width  (m)                     120.000
   Height (m)                     310.000
   Initial Time Step (s)            0.180

 Grid Dimensions, Mesh     5

   Cells in the X Direction             4
   Cells in the Y Direction            12
   Cells in the Z Direction            31


 Physical Dimensions, Mesh     5

   Length (m)                      40.000
   Width  (m)                     120.000
   Height (m)                     310.000
   Initial Time Step (s)            0.180

 Grid Dimensions, Mesh     6

   Cells in the X Direction            23
   Cells in the Y Direction            32
   Cells in the Z Direction            31


 Physical Dimensions, Mesh     6

   Length (m)                     230.000
   Width  (m)                     320.000
   Height (m)                     310.000
   Initial Time Step (s)            0.180


 Miscellaneous Parameters

   Simulation Start Time (s)          0.0
   Simulation End Time (s)            0.0
   LES Calculation
   Deardorff Model (C_DEARDORFF)     0.10
   Turbulent Prandtl Number          0.50
   Turbulent Schmidt Number          0.50
   Ambient Temperature (C)          20.00


 Mass Fraction Transformation Matrix to Convert Species Mixtures (Columns) to Primitive Species (Rows)

                         AIR       POLYURET  PRODUCTS
   POLYURETHANE          0.000000  1.000000  0.000000
   NITROGEN              0.763077  0.000000  0.684436
   OXYGEN                0.231181  0.000000  0.000000
   CARBON DIOXIDE        0.000592  0.000000  0.251122
   CARBON MONOXIDE       0.000000  0.000000  0.000000
   WATER VAPOR           0.005149  0.000000  0.063242
   SOOT                  0.000000  0.000000  0.001199


 Primitive Species Information

   POLYURETHANE
   Gas Species
   Molecular Weight (g/mol)           130.42922
   Ambient Density (kg/m^3)            5.422
   Enthalpy of Formation (J/kg)       -3.03E+06

   NITROGEN
   Gas Species
   Molecular Weight (g/mol)            28.01340
   Ambient Density (kg/m^3)            1.165
   Enthalpy of Formation (J/kg)        0.00E+00

   OXYGEN
   Gas Species
   Molecular Weight (g/mol)            31.99880
   Ambient Density (kg/m^3)            1.330
   Enthalpy of Formation (J/kg)        0.00E+00

   CARBON DIOXIDE
   Gas Species
   Molecular Weight (g/mol)            44.00950
   Ambient Density (kg/m^3)            1.830
   Enthalpy of Formation (J/kg)       -8.94E+06

   CARBON MONOXIDE
   Gas Species
   Molecular Weight (g/mol)            28.01010
   Ambient Density (kg/m^3)            1.164
   Enthalpy of Formation (J/kg)       -3.95E+06

   WATER VAPOR
   Gas Species
   Molecular Weight (g/mol)            18.01528
   Ambient Density (kg/m^3)            0.749
   Enthalpy of Formation (J/kg)       -1.34E+07

   SOOT
   Gas Species
   Molecular Weight (g/mol)            10.91042
   Ambient Density (kg/m^3)            0.454
   Enthalpy of Formation (J/kg)        0.00E+00


 Tracked (Lumped) Species Information

   AIR
   Molecular Weight (g/mol)            28.76564
   Ambient Density (kg/m^3)            1.196
   Initial Mass Fraction               1.000
   Enthalpy of Formation (J/kg)     -7.44E+04

   Sub Species                    Mass Fraction     Mole Fraction
   NITROGEN                       7.630774E-01      7.835682E-01
   OXYGEN                         2.311814E-01      2.078229E-01
   CARBON DIOXIDE                 5.919362E-04      3.869034E-04
   WATER VAPOR                    5.149269E-03      8.222023E-03
 
     Viscosity (kg/m/s) Ambient,  293 K:  1.80E-05
                                  500 K:  2.61E-05
                                 1000 K:  4.13E-05
                                 1500 K:  5.37E-05
   Therm. Cond. (W/m/K) Ambient,  293 K:  2.56E-02
                                  500 K:  3.81E-02
                                 1000 K:  6.68E-02
                                 1500 K:  9.24E-02
        Enthalpy (J/kg) Ambient,  293 K: -7.97E+04
                                  500 K: -1.36E+05
                                 1000 K: -2.72E+05
                                 1500 K: -4.08E+05
    Spec. Heat (J/kg/K) Ambient,  293 K:  1.02E+03
                                  500 K:  1.04E+03
                                 1000 K:  1.16E+03
                                 1500 K:  1.23E+03
   Diff. Coeff. (m^2/s) Ambient,  293 K:  1.99E-05
                                  500 K:  4.96E-05
                                 1000 K:  1.58E-04
                                 1500 K:  3.09E-04

   POLYURETHANE
   Molecular Weight (g/mol)           130.42922
   Ambient Density (kg/m^3)            5.422
   Initial Mass Fraction               0.000
   Enthalpy of Formation (J/kg)     -3.03E+06

   Sub Species                    Mass Fraction     Mole Fraction
   POLYURETHANE                   1.000000E+00      1.000000E+00
 
     Viscosity (kg/m/s) Ambient,  293 K:  3.75E-05
                                  500 K:  5.42E-05
                                 1000 K:  8.52E-05
                                 1500 K:  1.11E-04
   Therm. Cond. (W/m/K) Ambient,  293 K:  1.18E-02
                                  500 K:  1.70E-02
                                 1000 K:  2.68E-02
                                 1500 K:  3.48E-02
        Enthalpy (J/kg) Ambient,  293 K: -3.03E+06
                                  500 K: -5.18E+06
                                 1000 K: -1.04E+07
                                 1500 K: -1.55E+07
    Spec. Heat (J/kg/K) Ambient,  293 K:  2.23E+02
                                  500 K:  2.23E+02
                                 1000 K:  2.23E+02
                                 1500 K:  2.23E+02
   Diff. Coeff. (m^2/s) Ambient,  293 K:  1.55E-05
                                  500 K:  3.85E-05
                                 1000 K:  1.22E-04
                                 1500 K:  2.39E-04

   PRODUCTS
   Molecular Weight (g/mol)            29.62178
   Ambient Density (kg/m^3)            1.231
   Initial Mass Fraction               0.000
   Enthalpy of Formation (J/kg)     -3.09E+06

   Sub Species                    Mass Fraction     Mole Fraction
   NITROGEN                       6.844363E-01      7.237328E-01
   CARBON DIOXIDE                 2.511223E-01      1.690246E-01
   CARBON MONOXIDE                0.000000E+00      0.000000E+00
   WATER VAPOR                    6.324206E-02      1.039863E-01
   SOOT                           1.199367E-03      3.256280E-03
 
     Viscosity (kg/m/s) Ambient,  293 K:  1.63E-05
                                  500 K:  2.41E-05
                                 1000 K:  3.91E-05
                                 1500 K:  5.14E-05
   Therm. Cond. (W/m/K) Ambient,  293 K:  2.31E-02
                                  500 K:  3.60E-02
                                 1000 K:  6.63E-02
                                 1500 K:  9.41E-02
        Enthalpy (J/kg) Ambient,  293 K: -3.10E+06
                                  500 K: -5.29E+06
                                 1000 K: -1.06E+07
                                 1500 K: -1.59E+07
    Spec. Heat (J/kg/K) Ambient,  293 K:  1.04E+03
                                  500 K:  1.10E+03
                                 1000 K:  1.26E+03
                                 1500 K:  1.35E+03
   Diff. Coeff. (m^2/s) Ambient,  293 K:  1.92E-05
                                  500 K:  4.85E-05
                                 1000 K:  1.56E-04
                                 1500 K:  3.06E-04


 Gas Phase Reaction Information

   C_6.3 H_7.1 N O_2.1, NFPA Handbook, Babrauskas

   Fuel                                           Heat of Combustion (kJ/kg)
   POLYURETHANE                                                   22222.1389

   Stoichiometry

   Primitive Species
   Species ID                                                 Stoich. Coeff.
   POLYURETHANE                                                    -1.000000
   NITROGEN                                                         0.500000
   OXYGEN                                                          -6.914420
   CARBON DIOXIDE                                                   6.192409
   WATER VAPOR                                                      3.544023
   SOOT                                                             0.119546

   Tracked (Lumped) Species
   Species ID                                                 Stoich. Coeff.
   AIR                                                            -33.270741
   POLYURETHANE                                                    -1.000000
   PRODUCTS                                                        36.712298

   Reaction Kinetics

   Arrhenius Parameters
   Pre-exponential:    Infinite
   Activation Energy:  N/A

   ODE Solver:  EXPLICIT EULER
   Extinction Model:  EXTINCTION 2
   Ignition Temperature (K):            0.0
   Critical Flame Temperature (K):   1600.2


 Material Information


 Surface Conditions

   0 INERT (DEFAULT)

   1 FIRE
     HRR Per Unit Area (kW/m2)     250000.0
     POLYURETHANE Mass Flux (kg/s/m2)   1.13E+01

   2 OPEN
     Passive Vent to Atmosphere

   3 MIRROR
     Symmetry Plane

   4 INTERPOLATED

   5 PERIODIC

   6 HVAC

   7 MASSLESS TRACER

   8 DROPLET

   9 VEGETATION

  10 EVACUATION_OUTFLOW
     Normal Velocity (m/s)         0.000

  11 MASSLESS TARGET

  12 PERIODIC WIND


 Slice File Information, Mesh     1

   Sampling Interval (s)             0.000

   1 Nodes:   0  25   0  32  23  23, Quantity: TEMPERATURE


 Slice File Information, Mesh     3

   Sampling Interval (s)             0.000

   1 Nodes:   0  20   0  40  20  20, Quantity: TEMPERATURE


 Slice File Information, Mesh     4

   Sampling Interval (s)             0.000

   1 Nodes:   0   4   0  12  23  23, Quantity: TEMPERATURE


 Slice File Information, Mesh     5

   Sampling Interval (s)             0.000

   1 Nodes:   0   4   0  12  23  23, Quantity: TEMPERATURE


 Slice File Information, Mesh     6

   Sampling Interval (s)             0.000

   1 Nodes:   0  23   0  32  23  23, Quantity: TEMPERATURE



STOP: Set-up only (CHID: room)
