
 Fire Dynamics Simulator

 Current Date     : February 22, 2017  16:14:31
 Version          : FDS 6.5.3
 Revision         : FDS6.5.3-801-ga75adfa
 Revision Date    : Mon Feb 20 14:43:26 2017 -0500
 Compilation Date : Feb 21, 2017  14:05:49

 MPI Disabled
 OpenMP Enabled; Number of OpenMP Threads:   4

 Job TITLE        : room fire
 Job ID string    : room


 Grid Dimensions, Mesh     1

   Cells in the X Direction            52
   Cells in the Y Direction            32
   Cells in the Z Direction            31


 Physical Dimensions, Mesh     1

   Length (m)                     520.000
   Width  (m)                     320.000
   Height (m)                     310.000
   Initial Time Step (s)            0.449

 Grid Dimensions, Mesh     2

   Cells in the X Direction             8
   Cells in the Y Direction            16
   Cells in the Z Direction            24


 Physical Dimensions, Mesh     2

   Length (m)                      40.000
   Width  (m)                      80.000
   Height (m)                     120.000
   Initial Time Step (s)            0.449


 Miscellaneous Parameters

   Simulation Start Time (s)          0.0
   Simulation End Time (s)           40.0
   LES Calculation
   Deardorff Model (C_DEARDORFF)     0.10
   Turbulent Prandtl Number          0.50
   Turbulent Schmidt Number          0.50
   Ambient Temperature (C)          20.00


 Mass Fraction Transformation Matrix to Convert Species Mixtures (Columns) to Primitive Species (Rows)

                         AIR       POLYURET  PRODUCTS
   POLYURETHANE          0.000000  1.000000  0.000000
   NITROGEN              0.763077  0.000000  0.684436
   OXYGEN                0.231181  0.000000  0.000000
   CARBON DIOXIDE        0.000592  0.000000  0.251122
   CARBON MONOXIDE       0.000000  0.000000  0.000000
   WATER VAPOR           0.005149  0.000000  0.063242
   SOOT                  0.000000  0.000000  0.001199


 Primitive Species Information

   POLYURETHANE
   Gas Species
   Molecular Weight (g/mol)           130.42922
   Ambient Density (kg/m^3)            5.422
   Enthalpy of Formation (J/kg)       -3.03E+06

   NITROGEN
   Gas Species
   Molecular Weight (g/mol)            28.01340
   Ambient Density (kg/m^3)            1.165
   Enthalpy of Formation (J/kg)        0.00E+00

   OXYGEN
   Gas Species
   Molecular Weight (g/mol)            31.99880
   Ambient Density (kg/m^3)            1.330
   Enthalpy of Formation (J/kg)        0.00E+00

   CARBON DIOXIDE
   Gas Species
   Molecular Weight (g/mol)            44.00950
   Ambient Density (kg/m^3)            1.830
   Enthalpy of Formation (J/kg)       -8.94E+06

   CARBON MONOXIDE
   Gas Species
   Molecular Weight (g/mol)            28.01010
   Ambient Density (kg/m^3)            1.164
   Enthalpy of Formation (J/kg)       -3.95E+06

   WATER VAPOR
   Gas Species
   Molecular Weight (g/mol)            18.01528
   Ambient Density (kg/m^3)            0.749
   Enthalpy of Formation (J/kg)       -1.34E+07

   SOOT
   Gas Species
   Molecular Weight (g/mol)            10.91042
   Ambient Density (kg/m^3)            0.454
   Enthalpy of Formation (J/kg)        0.00E+00


 Tracked (Lumped) Species Information

   AIR
   Molecular Weight (g/mol)            28.76564
   Ambient Density (kg/m^3)            1.196
   Initial Mass Fraction               1.000
   Enthalpy of Formation (J/kg)     -7.44E+04

   Sub Species                    Mass Fraction     Mole Fraction
   NITROGEN                       7.630774E-01      7.835682E-01
   OXYGEN                         2.311814E-01      2.078229E-01
   CARBON DIOXIDE                 5.919362E-04      3.869034E-04
   WATER VAPOR                    5.149269E-03      8.222023E-03
 
     Viscosity (kg/m/s) Ambient,  293 K:  1.80E-05
                                  500 K:  2.61E-05
                                 1000 K:  4.13E-05
                                 1500 K:  5.37E-05
   Therm. Cond. (W/m/K) Ambient,  293 K:  2.56E-02
                                  500 K:  3.81E-02
                                 1000 K:  6.68E-02
                                 1500 K:  9.24E-02
        Enthalpy (J/kg) Ambient,  293 K: -7.97E+04
                                  500 K: -1.36E+05
                                 1000 K: -2.72E+05
                                 1500 K: -4.08E+05
    Spec. Heat (J/kg/K) Ambient,  293 K:  1.02E+03
                                  500 K:  1.04E+03
                                 1000 K:  1.16E+03
                                 1500 K:  1.23E+03
   Diff. Coeff. (m^2/s) Ambient,  293 K:  1.99E-05
                                  500 K:  4.96E-05
                                 1000 K:  1.58E-04
                                 1500 K:  3.09E-04

   POLYURETHANE
   Molecular Weight (g/mol)           130.42922
   Ambient Density (kg/m^3)            5.422
   Initial Mass Fraction               0.000
   Enthalpy of Formation (J/kg)     -3.03E+06

   Sub Species                    Mass Fraction     Mole Fraction
   POLYURETHANE                   1.000000E+00      1.000000E+00
 
     Viscosity (kg/m/s) Ambient,  293 K:  3.75E-05
                                  500 K:  5.42E-05
                                 1000 K:  8.52E-05
                                 1500 K:  1.11E-04
   Therm. Cond. (W/m/K) Ambient,  293 K:  1.18E-02
                                  500 K:  1.70E-02
                                 1000 K:  2.68E-02
                                 1500 K:  3.48E-02
        Enthalpy (J/kg) Ambient,  293 K: -3.03E+06
                                  500 K: -5.18E+06
                                 1000 K: -1.04E+07
                                 1500 K: -1.55E+07
    Spec. Heat (J/kg/K) Ambient,  293 K:  2.23E+02
                                  500 K:  2.23E+02
                                 1000 K:  2.23E+02
                                 1500 K:  2.23E+02
   Diff. Coeff. (m^2/s) Ambient,  293 K:  1.55E-05
                                  500 K:  3.85E-05
                                 1000 K:  1.22E-04
                                 1500 K:  2.39E-04

   PRODUCTS
   Molecular Weight (g/mol)            29.62178
   Ambient Density (kg/m^3)            1.231
   Initial Mass Fraction               0.000
   Enthalpy of Formation (J/kg)     -3.09E+06

   Sub Species                    Mass Fraction     Mole Fraction
   NITROGEN                       6.844363E-01      7.237328E-01
   CARBON DIOXIDE                 2.511223E-01      1.690246E-01
   CARBON MONOXIDE                0.000000E+00      0.000000E+00
   WATER VAPOR                    6.324206E-02      1.039863E-01
   SOOT                           1.199367E-03      3.256280E-03
 
     Viscosity (kg/m/s) Ambient,  293 K:  1.63E-05
                                  500 K:  2.41E-05
                                 1000 K:  3.91E-05
                                 1500 K:  5.14E-05
   Therm. Cond. (W/m/K) Ambient,  293 K:  2.31E-02
                                  500 K:  3.60E-02
                                 1000 K:  6.63E-02
                                 1500 K:  9.41E-02
        Enthalpy (J/kg) Ambient,  293 K: -3.10E+06
                                  500 K: -5.29E+06
                                 1000 K: -1.06E+07
                                 1500 K: -1.59E+07
    Spec. Heat (J/kg/K) Ambient,  293 K:  1.04E+03
                                  500 K:  1.10E+03
                                 1000 K:  1.26E+03
                                 1500 K:  1.35E+03
   Diff. Coeff. (m^2/s) Ambient,  293 K:  1.92E-05
                                  500 K:  4.85E-05
                                 1000 K:  1.56E-04
                                 1500 K:  3.06E-04


 Gas Phase Reaction Information

   C_6.3 H_7.1 N O_2.1, NFPA Handbook, Babrauskas

   Fuel                                           Heat of Combustion (kJ/kg)
   POLYURETHANE                                                   22222.1389

   Stoichiometry

   Primitive Species
   Species ID                                                 Stoich. Coeff.
   POLYURETHANE                                                    -1.000000
   NITROGEN                                                         0.500000
   OXYGEN                                                          -6.914420
   CARBON DIOXIDE                                                   6.192409
   WATER VAPOR                                                      3.544023
   SOOT                                                             0.119546

   Tracked (Lumped) Species
   Species ID                                                 Stoich. Coeff.
   AIR                                                            -33.270741
   POLYURETHANE                                                    -1.000000
   PRODUCTS                                                        36.712298

   Reaction Kinetics

   Arrhenius Parameters
   Pre-exponential:    Infinite
   Activation Energy:  N/A

   ODE Solver:  EXPLICIT EULER
   Extinction Model:  EXTINCTION 2
   Ignition Temperature (K):            0.0
   Critical Flame Temperature (K):   1600.2


 Material Information


 Surface Conditions

   0 INERT (DEFAULT)

   1 FIRE
     HRR Per Unit Area (kW/m2)     250000.0
     POLYURETHANE Mass Flux (kg/s/m2)   1.13E+01

   2 OPEN
     Passive Vent to Atmosphere

   3 MIRROR
     Symmetry Plane

   4 INTERPOLATED

   5 PERIODIC

   6 HVAC

   7 MASSLESS TRACER

   8 DROPLET

   9 VEGETATION

  10 EVACUATION_OUTFLOW
     Normal Velocity (m/s)         0.000

  11 MASSLESS TARGET

  12 PERIODIC WIND


 Slice File Information, Mesh     1

   Sampling Interval (s)             0.040

   1 Nodes:   0  52   0  32  13  13, Quantity: TEMPERATURE
   2 Nodes:  25  29  12  20  19  31, Quantity: VELOCITY
   3 Nodes:  25  29  12  20  19  31, Quantity: U-VELOCITY
   4 Nodes:  25  29  12  20  19  31, Quantity: V-VELOCITY
   5 Nodes:  25  29  12  20  19  31, Quantity: W-VELOCITY


 Slice File Information, Mesh     2

   Sampling Interval (s)             0.040

   1 Nodes:   0   8   0  16   0  24, Quantity: VELOCITY
   2 Nodes:   0   8   0  16   0  24, Quantity: U-VELOCITY
   3 Nodes:   0   8   0  16   0  24, Quantity: V-VELOCITY
   4 Nodes:   0   8   0  16   0  24, Quantity: W-VELOCITY


 Radiation Model Information

   Number of control angles  104
   Time step increment         3
   Angle increment             5
   Theta band N_phi   Solid angle
     1:        4  0.12
     2:       12  0.11
     3:       16  0.13
     4:       20  0.12
     5:       20  0.12
     6:       16  0.13
     7:       12  0.11
     8:        4  0.12
   Using gray gas absorption.
   Mean beam length 10.000 m



 Run Time Diagnostics

       Time Step       1   February 22, 2017  16:14:31
       Step Size:    0.449E+00 s, Total Time:       0.45 s
       Pressure Iterations:      2
       Maximum Velocity Error:  0.26E+00 on Mesh   1 at (  17  27   1)
       Maximum Pressure Error:  0.70E-01 on Mesh   1 at (  16  17   1)
       ---------------------------------------------------------------
       Mesh    1
       Max CFL number:  0.40E-01 at (  16,  16,   1)
       Max divergence:  0.40E+01 at (  17,  16,   1)
       Min divergence: -0.39E-03 at (  15,  16,   1)
       Max VN number:   0.11E-02 at (   9,  13,  25)
       Total Heat Release Rate:        5680321.222 kW
       Radiation Loss to Boundaries:         0.024 kW
       Mesh    2
       Max CFL number:  0.15E-02 at (   5,  11,  20)
       Max divergence:  0.11E-05 at (   6,  10,  13)
       Min divergence: -0.11E-05 at (   7,   7,  23)
       Max VN number:   0.14E-02 at (   2,   6,   2)

       Time Step       2   February 22, 2017  16:14:32
       Step Size:    0.316E+00 s, Total Time:       0.76 s
       Pressure Iterations:     10
       Maximum Velocity Error:  0.12E+00 on Mesh   1 at (   7  16   1)
       Maximum Pressure Error:  0.73E+00 on Mesh   1 at (  17  16   1)
       ---------------------------------------------------------------
       Mesh    1
       Max CFL number:  0.72E+00 at (  17,  16,   1)
       Max divergence:  0.26E+01 at (  16,  16,   1)
       Min divergence: -0.34E-01 at (  15,  16,   1)
       Max VN number:   0.90E+00 at (  16,  16,   1)
       Total Heat Release Rate:        6005524.169 kW
       Radiation Loss to Boundaries:   -330055.476 kW
       Mesh    2
       Max CFL number:  0.44E-02 at (   2,   1,   1)
       Max divergence:  0.98E-05 at (   2,   8,   1)
       Min divergence: -0.11E-05 at (   3,   4,   1)
       Max VN number:   0.15E-02 at (   2,   1,   1)

       Time Step       3   February 22, 2017  16:14:32
       Step Size:    0.278E+00 s, Total Time:       1.04 s
       Pressure Iterations:      5
       Maximum Velocity Error:  0.91E-01 on Mesh   2 at (   3   1   1)
       Maximum Pressure Error:  0.72E+00 on Mesh   1 at (  16  16   1)
       ---------------------------------------------------------------
       Mesh    1
       Max CFL number:  0.92E+00 at (  17,  16,   1)
       Max divergence:  0.18E+01 at (  17,  15,   1)
       Min divergence: -0.18E+01 at (  16,  17,   1)
       Max VN number:   0.17E+00 at (  16,  16,   1)
       Total Heat Release Rate:        9481884.117 kW
       Radiation Loss to Boundaries:  -5510081.333 kW
       Mesh    2
       Max CFL number:  0.21E-01 at (   2,   4,   3)
       Max divergence:  0.28E-04 at (   2,   8,   1)
       Min divergence: -0.12E-04 at (   3,   6,   1)
       Max VN number:   0.33E-02 at (   2,   4,   3)

       Time Step       4   February 22, 2017  16:14:33
       Step Size:    0.278E+00 s, Total Time:       1.32 s
       Pressure Iterations:      6
       Maximum Velocity Error:  0.11E+00 on Mesh   2 at (   3   1   1)
       Maximum Pressure Error:  0.43E+00 on Mesh   1 at (  18  16   1)
       ---------------------------------------------------------------
       Mesh    1
       Max CFL number:  0.69E+00 at (  16,  17,   1)
       Max divergence:  0.19E+01 at (  16,  17,   1)
       Min divergence: -0.86E-01 at (  15,  16,   1)
       Max VN number:   0.29E+00 at (  17,  15,   1)
       Total Heat Release Rate:        8318796.234 kW
       Radiation Loss to Boundaries:  -3314496.516 kW
       Mesh    2
       Max CFL number:  0.48E-01 at (   2,   4,   3)
       Max divergence:  0.49E-04 at (   2,   8,   1)
       Min divergence: -0.27E-04 at (   3,   6,   1)
       Max VN number:   0.11E-01 at (   2,   4,   3)

       Time Step       5   February 22, 2017  16:14:33
       Step Size:    0.306E+00 s, Total Time:       1.63 s
       Pressure Iterations:      2
       Maximum Velocity Error:  0.13E+00 on Mesh   2 at (   1   1  13)
       Maximum Pressure Error:  0.70E+00 on Mesh   1 at (  17  16   1)
       ---------------------------------------------------------------
       Mesh    1
       Max CFL number:  0.81E+00 at (  17,  17,   1)
       Max divergence:  0.62E+00 at (  15,  16,   1)
       Min divergence: -0.14E+00 at (  16,  16,   1)
       Max VN number:   0.15E+00 at (  16,  17,   1)
       Total Heat Release Rate:        9661884.795 kW
       Radiation Loss to Boundaries:  -5418389.246 kW
       Mesh    2
       Max CFL number:  0.10E+00 at (   2,   4,   3)
       Max divergence:  0.84E-04 at (   2,   8,   1)
       Min divergence: -0.52E-04 at (   3,   9,   1)
       Max VN number:   0.27E-01 at (   2,   4,   3)

       Time Step       6   February 22, 2017  16:14:33
       Step Size:    0.306E+00 s, Total Time:       1.93 s
       Pressure Iterations:      5
       Maximum Velocity Error:  0.16E+00 on Mesh   1 at (   7  16   1)
       Maximum Pressure Error:  0.68E+00 on Mesh   1 at (  15  16   1)
       ---------------------------------------------------------------
       Mesh    1
       Max CFL number:  0.30E+00 at (  15,  16,   1)
       Max divergence:  0.32E+00 at (  18,  15,   1)
       Min divergence: -0.97E+00 at (  15,  16,   1)
       Max VN number:   0.89E-01 at (  17,  16,   1)
       Total Heat Release Rate:        6993493.150 kW
       Radiation Loss to Boundaries:  -7648140.903 kW
       Mesh    2
       Max CFL number:  0.16E+00 at (   2,   4,   3)
       Max divergence:  0.12E-03 at (   2,   8,   1)
       Min divergence: -0.78E-04 at (   3,   9,   1)
       Max VN number:   0.47E-01 at (   2,   4,   3)

       Time Step       7   February 22, 2017  16:14:33
       Step Size:    0.336E+00 s, Total Time:       2.27 s
       Pressure Iterations:      4
       Maximum Velocity Error:  0.21E+00 on Mesh   1 at (  17   7   1)
       Maximum Pressure Error:  0.60E+00 on Mesh   1 at (  18  15   1)
       ---------------------------------------------------------------
       Mesh    1
       Max CFL number:  0.54E+00 at (  15,  16,   1)
       Max divergence:  0.14E+01 at (  15,  16,   1)
       Min divergence: -0.77E-04 at (  27,  17,  20)
       Max VN number:   0.11E+00 at (  16,  16,   1)
       Total Heat Release Rate:        7887559.767 kW
       Radiation Loss to Boundaries:   -990508.117 kW
       Mesh    2
       Max CFL number:  0.26E+00 at (   2,   4,   3)
       Max divergence:  0.15E-03 at (   2,   8,   1)
       Min divergence: -0.12E-03 at (   3,  11,   2)
       Max VN number:   0.80E-01 at (   2,   4,   3)

       Time Step       8   February 22, 2017  16:14:34
       Step Size:    0.370E+00 s, Total Time:       2.64 s
       Pressure Iterations:      6
       Maximum Velocity Error:  0.18E+00 on Mesh   1 at (  17  27   1)
       Maximum Pressure Error:  0.37E+00 on Mesh   1 at (  17  16   2)
       ---------------------------------------------------------------
       Mesh    1
       Max CFL number:  0.78E+00 at (  15,  16,   1)
       Max divergence:  0.50E+00 at (  18,  15,   1)
       Min divergence: -0.14E+01 at (  15,  17,   1)
       Max VN number:   0.19E+00 at (  17,  16,   1)
       Total Heat Release Rate:        8401246.786 kW
       Radiation Loss to Boundaries: -11478699.233 kW
       Mesh    2
       Max CFL number:  0.39E+00 at (   2,  13,   3)
       Max divergence:  0.19E-03 at (   2,   8,   1)
       Min divergence: -0.17E-03 at (   3,  11,   2)
       Max VN number:   0.12E+00 at (   2,   4,   3)

       Time Step       9   February 22, 2017  16:14:34
       Step Size:    0.351E+00 s, Total Time:       2.99 s
       Pressure Iterations:      6
       Maximum Velocity Error:  0.30E+00 on Mesh   1 at (  17   7   1)
       Maximum Pressure Error:  0.40E+00 on Mesh   1 at (  15  18   1)
       ---------------------------------------------------------------
       Mesh    1
       Max CFL number:  0.89E+00 at (  15,  17,   1)
       Max divergence:  0.18E+01 at (  15,  16,   1)
       Min divergence: -0.13E-03 at (  27,  17,  20)
       Max VN number:   0.20E+00 at (  16,  17,   1)
       Total Heat Release Rate:       10315469.350 kW
       Radiation Loss to Boundaries:  -1400485.336 kW
       Mesh    2
       Max CFL number:  0.47E+00 at (   2,  13,   3)
       Max divergence:  0.21E-03 at (   2,   8,   1)
       Min divergence: -0.21E-03 at (   3,  11,   2)
       Max VN number:   0.16E+00 at (   2,   4,   3)

       Time Step      10   February 22, 2017  16:14:34
       Step Size:    0.351E+00 s, Total Time:       3.34 s
       Pressure Iterations:      7
       Maximum Velocity Error:  0.87E-01 on Mesh   1 at (   7  26   1)
       Maximum Pressure Error:  0.54E+00 on Mesh   1 at (  16  16   1)
       ---------------------------------------------------------------
       Mesh    1
       Max CFL number:  0.88E+00 at (  17,  15,   1)
       Max divergence:  0.85E+00 at (  18,  15,   1)
       Min divergence: -0.50E+00 at (  15,  16,   2)
       Max VN number:   0.35E+00 at (  15,  16,   1)
       Total Heat Release Rate:        7788061.200 kW
       Radiation Loss to Boundaries:  -3795062.672 kW
       Mesh    2
       Max CFL number:  0.54E+00 at (   2,  13,   3)
       Max divergence:  0.26E-03 at (   2,   8,   1)
       Min divergence: -0.24E-03 at (   3,  11,   2)
       Max VN number:   0.19E+00 at (   2,  13,   3)

       Time Step      20   February 22, 2017  16:14:38
       Step Size:    0.162E+00 s, Total Time:       5.92 s
       Pressure Iterations:     10
       Maximum Velocity Error:  0.22E+00 on Mesh   1 at (  17   7   1)
       Maximum Pressure Error:  0.17E+01 on Mesh   1 at (  15  15   1)
       ---------------------------------------------------------------
       Mesh    1
       Max CFL number:  0.43E+00 at (  18,  15,   1)
       Max divergence:  0.22E+01 at (  14,  16,   1)
       Min divergence: -0.26E+00 at (  16,  15,   4)
       Max VN number:   0.29E+00 at (  16,  15,   1)
       Total Heat Release Rate:       24104525.420 kW
       Radiation Loss to Boundaries:  -5720555.340 kW
       Mesh    2
       Max CFL number:  0.68E+00 at (   2,  13,   4)
       Max divergence:  0.11E-02 at (   2,  11,   2)
       Min divergence: -0.89E-03 at (   2,  11,   9)
       Max VN number:   0.26E+00 at (   2,  13,   3)

       Time Step      30   February 22, 2017  16:14:42
       Step Size:    0.110E+00 s, Total Time:       7.36 s
       Pressure Iterations:      6
       Maximum Velocity Error:  0.91E-01 on Mesh   2 at (   3  16   5)
       Maximum Pressure Error:  0.66E+00 on Mesh   1 at (  18  15   2)
       ---------------------------------------------------------------
       Mesh    1
       Max CFL number:  0.46E+00 at (  17,  19,   2)
       Max divergence:  0.11E+01 at (  19,  18,   1)
       Min divergence: -0.38E+00 at (  18,  16,   4)
       Max VN number:   0.20E+00 at (  18,  15,   1)
       Total Heat Release Rate:       29886738.098 kW
       Radiation Loss to Boundaries: -10169074.878 kW
       Mesh    2
       Max CFL number:  0.90E+00 at (   2,  13,   6)
       Max divergence:  0.24E-02 at (   2,   9,   2)
       Min divergence: -0.20E-02 at (   2,   9,   9)
       Max VN number:   0.34E+00 at (   2,  14,   6)

       Time Step      40   February 22, 2017  16:14:45
       Step Size:    0.855E-01 s, Total Time:       8.34 s
       Pressure Iterations:     10
       Maximum Velocity Error:  0.64E-01 on Mesh   1 at (  17   7   1)
       Maximum Pressure Error:  0.13E+01 on Mesh   1 at (  15  19   1)
       ---------------------------------------------------------------
       Mesh    1
       Max CFL number:  0.40E+00 at (  27,  18,  23)
       Max divergence:  0.13E+01 at (  18,  14,   1)
       Min divergence: -0.42E+00 at (  17,  17,   4)
       Max VN number:   0.25E+00 at (  15,  15,   1)
       Total Heat Release Rate:       37164560.147 kW
       Radiation Loss to Boundaries:  -9214057.093 kW
       Mesh    2
       Max CFL number:  0.92E+00 at (   2,  10,   3)
       Max divergence:  0.31E-02 at (   2,  12,   2)
       Min divergence: -0.26E-02 at (   2,  10,   9)
       Max VN number:   0.37E+00 at (   2,  14,   8)

       Time Step      50   February 22, 2017  16:14:49
       Step Size:    0.662E-01 s, Total Time:       9.13 s
       Pressure Iterations:     10
       Maximum Velocity Error:  0.11E+00 on Mesh   2 at (   2  16  13)
       Maximum Pressure Error:  0.12E+01 on Mesh   1 at (  15  14   1)
       ---------------------------------------------------------------
       Mesh    1
       Max CFL number:  0.41E+00 at (  15,  17,   5)
       Max divergence:  0.17E+01 at (  14,  18,   1)
       Min divergence: -0.62E+00 at (  15,  15,   2)
       Max VN number:   0.16E+00 at (  15,  15,   1)
       Total Heat Release Rate:       51129147.724 kW
       Radiation Loss to Boundaries: -15937161.697 kW
       Mesh    2
       Max CFL number:  0.90E+00 at (   2,  13,   6)
       Max divergence:  0.37E-02 at (   2,   7,   2)
       Min divergence: -0.33E-02 at (   2,   6,   9)
       Max VN number:   0.37E+00 at (   4,  13,   3)

       Time Step      60   February 22, 2017  16:14:53
       Step Size:    0.519E-01 s, Total Time:       9.71 s
       Pressure Iterations:      9
       Maximum Velocity Error:  0.10E+00 on Mesh   2 at (   3  16  12)
       Maximum Pressure Error:  0.63E+00 on Mesh   1 at (  14  15   2)
       ---------------------------------------------------------------
       Mesh    1
       Max CFL number:  0.40E+00 at (  27,  17,  23)
       Max divergence:  0.15E+01 at (  15,  19,   1)
       Min divergence: -0.60E+00 at (  15,  16,   3)
       Max VN number:   0.14E+00 at (  26,  19,  23)
       Total Heat Release Rate:       61280237.547 kW
       Radiation Loss to Boundaries: -17204283.550 kW
       Mesh    2
       Max CFL number:  0.99E+00 at (   3,   9,   3)
       Max divergence:  0.53E-02 at (   2,   9,   2)
       Min divergence: -0.45E-02 at (   2,   6,   9)
       Max VN number:   0.39E+00 at (   2,  14,   4)

       Time Step      70   February 22, 2017  16:14:57
       Step Size:    0.364E-01 s, Total Time:      10.13 s
       Pressure Iterations:     10
       Maximum Velocity Error:  0.11E+00 on Mesh   1 at (  17  27   2)
       Maximum Pressure Error:  0.43E+01 on Mesh   1 at (  14  17   1)
       ---------------------------------------------------------------
       Mesh    1
       Max CFL number:  0.37E+00 at (  27,  18,  23)
       Max divergence:  0.15E+01 at (  15,  16,   9)
       Min divergence: -0.61E+00 at (  18,  15,  10)
       Max VN number:   0.13E+00 at (  26,  19,  23)
       Total Heat Release Rate:       76978064.281 kW
       Radiation Loss to Boundaries: -15774342.057 kW
       Mesh    2
       Max CFL number:  0.90E+00 at (   2,   9,   3)
       Max divergence:  0.72E-02 at (   2,   9,   2)
       Min divergence: -0.58E-02 at (   2,   6,   9)
       Max VN number:   0.37E+00 at (   4,   4,   8)

       Time Step      80   February 22, 2017  16:15:01
       Step Size:    0.324E-01 s, Total Time:      10.48 s
       Pressure Iterations:     10
       Maximum Velocity Error:  0.36E-01 on Mesh   2 at (   3   5  12)
       Maximum Pressure Error:  0.10E+01 on Mesh   1 at (  14  14   1)
       ---------------------------------------------------------------
       Mesh    1
       Max CFL number:  0.39E+00 at (  27,  17,  23)
       Max divergence:  0.21E+01 at (  17,  18,   9)
       Min divergence: -0.59E+00 at (  16,  17,   5)
       Max VN number:   0.13E+00 at (  26,  19,  23)
       Total Heat Release Rate:       81274347.861 kW
       Radiation Loss to Boundaries: -16653418.911 kW
       Mesh    2
       Max CFL number:  0.94E+00 at (   2,   9,   3)
       Max divergence:  0.86E-02 at (   2,   9,   2)
       Min divergence: -0.67E-02 at (   2,   8,   9)
       Max VN number:   0.41E+00 at (   4,   4,   8)

       Time Step      90   February 22, 2017  16:15:04
       Step Size:    0.290E-01 s, Total Time:      10.79 s
       Pressure Iterations:      8
       Maximum Velocity Error:  0.60E-01 on Mesh   2 at (   3   1   1)
       Maximum Pressure Error:  0.30E+01 on Mesh   1 at (  14  14   1)
       ---------------------------------------------------------------
       Mesh    1
       Max CFL number:  0.38E+00 at (  27,  17,  23)
       Max divergence:  0.15E+01 at (  16,  18,  10)
       Min divergence: -0.60E+00 at (  16,  17,   5)
       Max VN number:   0.12E+00 at (  26,  19,  23)
       Total Heat Release Rate:       78510114.186 kW
       Radiation Loss to Boundaries: -16758276.580 kW
       Mesh    2
       Max CFL number:  0.92E+00 at (   3,   9,   3)
       Max divergence:  0.92E-02 at (   2,  10,   2)
       Min divergence: -0.72E-02 at (   2,   8,   9)
       Max VN number:   0.37E+00 at (   2,  14,   8)

       Time Step     100   February 22, 2017  16:15:08
       Step Size:    0.290E-01 s, Total Time:      11.08 s
       Pressure Iterations:      8
       Maximum Velocity Error:  0.43E-01 on Mesh   2 at (   2   1  13)
       Maximum Pressure Error:  0.76E+00 on Mesh   1 at (  14  14   1)
       ---------------------------------------------------------------
       Mesh    1
       Max CFL number:  0.38E+00 at (  30,  17,  23)
       Max divergence:  0.12E+01 at (  15,  13,   1)
       Min divergence: -0.12E+01 at (  18,  15,   4)
       Max VN number:   0.14E+00 at (  29,  15,  21)
       Total Heat Release Rate:       69257991.502 kW
       Radiation Loss to Boundaries:  -8817328.518 kW
       Mesh    2
       Max CFL number:  0.91E+00 at (   3,   9,   8)
       Max divergence:  0.97E-02 at (   2,  10,   2)
       Min divergence: -0.68E-02 at (   2,  11,   8)
       Max VN number:   0.36E+00 at (   2,   9,   9)

       Time Step     200   February 22, 2017  16:15:44
       Step Size:    0.304E-01 s, Total Time:      14.23 s
       Pressure Iterations:     10
       Maximum Velocity Error:  0.51E-01 on Mesh   1 at (  17  27   1)
       Maximum Pressure Error:  0.33E+01 on Mesh   1 at (  16  20   1)
       ---------------------------------------------------------------
       Mesh    1
       Max CFL number:  0.40E+00 at (  26,  15,  21)
       Max divergence:  0.17E+01 at (  15,  13,   1)
       Min divergence: -0.83E+00 at (  16,  17,  10)
       Max VN number:   0.14E+00 at (  27,  17,  24)
       Total Heat Release Rate:       74163341.166 kW
       Radiation Loss to Boundaries: -10097069.136 kW
       Mesh    2
       Max CFL number:  0.88E+00 at (   2,   9,   3)
       Max divergence:  0.61E-01 at (   2,  11,   2)
       Min divergence: -0.28E-01 at (   2,  11,   3)
       Max VN number:   0.39E+00 at (   2,  14,   7)

       Time Step     300   February 22, 2017  16:16:23
       Step Size:    0.191E-01 s, Total Time:      16.58 s
       Pressure Iterations:     10
       Maximum Velocity Error:  0.16E+00 on Mesh   1 at (  20  16  26)
       Maximum Pressure Error:  0.24E+01 on Mesh   1 at (  20  17   1)
       ---------------------------------------------------------------
       Mesh    1
       Max CFL number:  0.39E+00 at (  26,  15,  23)
       Max divergence:  0.30E+01 at (  17,  13,   1)
       Min divergence: -0.19E+01 at (  16,  17,   7)
       Max VN number:   0.16E+00 at (  28,  15,  23)
       Total Heat Release Rate:      117983378.795 kW
       Radiation Loss to Boundaries: -19049077.595 kW
       Mesh    2
       Max CFL number:  0.86E+00 at (   3,  13,   6)
       Max divergence:  0.20E+01 at (   4,   5,   3)
       Min divergence: -0.15E+01 at (   8,   8,   8)
       Max VN number:   0.37E+00 at (   2,  14,   6)

       Time Step     400   February 22, 2017  16:17:00
       Step Size:    0.134E-01 s, Total Time:      18.18 s
       Pressure Iterations:      5
       Maximum Velocity Error:  0.12E+01 on Mesh   2 at (   3   1   6)
       Maximum Pressure Error:  0.41E+02 on Mesh   2 at (   2   1   4)
       ---------------------------------------------------------------
       Mesh    1
       Max CFL number:  0.37E+00 at (  27,  19,  21)
       Max divergence:  0.26E+01 at (  15,  18,   1)
       Min divergence: -0.14E+01 at (  27,  19,  22)
       Max VN number:   0.19E+00 at (  26,  19,  23)
       Total Heat Release Rate:      110469622.736 kW
       Radiation Loss to Boundaries: -11216550.702 kW
       Mesh    2
       Max CFL number:  0.84E+00 at (   3,  13,   3)
       Max divergence:  0.34E+01 at (   2,  11,   1)
       Min divergence: -0.30E+01 at (   2,  11,   2)
       Max VN number:   0.41E+00 at (   3,  12,   2)

       Time Step     500   February 22, 2017  16:17:40
       Step Size:    0.159E-01 s, Total Time:      19.66 s
       Pressure Iterations:     10
       Maximum Velocity Error:  0.16E+00 on Mesh   1 at (  19  17  26)
       Maximum Pressure Error:  0.15E+01 on Mesh   1 at (  15  18   1)
       ---------------------------------------------------------------
       Mesh    1
       Max CFL number:  0.39E+00 at (  27,  15,  23)
       Max divergence:  0.28E+01 at (  15,  17,   1)
       Min divergence: -0.24E+01 at (  18,  16,  16)
       Max VN number:   0.16E+00 at (  26,  20,  21)
       Total Heat Release Rate:      124608304.657 kW
       Radiation Loss to Boundaries: -17846063.203 kW
       Mesh    2
       Max CFL number:  0.92E+00 at (   3,  13,   8)
       Max divergence:  0.12E+01 at (   3,   6,   9)
       Min divergence: -0.13E+01 at (   2,  13,   2)
       Max VN number:   0.42E+00 at (   2,  14,   7)

       Time Step     600   February 22, 2017  16:18:20
       Step Size:    0.121E-01 s, Total Time:      20.96 s
       Pressure Iterations:     10
       Maximum Velocity Error:  0.36E+00 on Mesh   2 at (   3   1   7)
       Maximum Pressure Error:  0.11E+02 on Mesh   1 at (  15  15   1)
       ---------------------------------------------------------------
       Mesh    1
       Max CFL number:  0.40E+00 at (  26,  18,  23)
       Max divergence:  0.19E+01 at (  15,  16,   1)
       Min divergence: -0.27E+01 at (  15,  17,  15)
       Max VN number:   0.17E+00 at (  26,  20,  21)
       Total Heat Release Rate:      156086488.858 kW
       Radiation Loss to Boundaries: -20695727.533 kW
       Mesh    2
       Max CFL number:  0.99E+00 at (   3,  13,   8)
       Max divergence:  0.25E+01 at (   4,  13,   8)
       Min divergence: -0.31E+01 at (   3,  13,   8)
       Max VN number:   0.50E+00 at (   2,  10,   9)

       Time Step     700   February 22, 2017  16:18:59
       Step Size:    0.104E-01 s, Total Time:      21.99 s
       Pressure Iterations:     10
       Maximum Velocity Error:  0.45E+00 on Mesh   1 at (  19  18  26)
       Maximum Pressure Error:  0.69E+01 on Mesh   2 at (   2   1   6)
       ---------------------------------------------------------------
       Mesh    1
       Max CFL number:  0.41E+00 at (  27,  18,  23)
       Max divergence:  0.25E+01 at (  15,  18,  21)
       Min divergence: -0.12E+01 at (  26,  17,  24)
       Max VN number:   0.18E+00 at (  26,  17,  24)
       Total Heat Release Rate:      173092883.141 kW
       Radiation Loss to Boundaries: -19954196.191 kW
       Mesh    2
       Max CFL number:  0.97E+00 at (   3,  11,   8)
       Max divergence:  0.47E+01 at (   8,  10,  10)
       Min divergence: -0.32E+01 at (   3,  13,   8)
       Max VN number:   0.43E+00 at (   2,  11,   9)

       Time Step     800   February 22, 2017  16:19:38
       Step Size:    0.124E-01 s, Total Time:      23.04 s
       Pressure Iterations:     10
       Maximum Velocity Error:  0.22E+00 on Mesh   1 at (  16  12  26)
       Maximum Pressure Error:  0.75E+01 on Mesh   2 at (   4  12   9)
       ---------------------------------------------------------------
       Mesh    1
       Max CFL number:  0.36E+00 at (  26,  18,  23)
       Max divergence:  0.18E+01 at (  17,  14,   1)
       Min divergence: -0.21E+01 at (  16,  15,  25)
       Max VN number:   0.15E+00 at (  26,  17,  24)
       Total Heat Release Rate:      127274080.531 kW
       Radiation Loss to Boundaries:  -9968433.041 kW
       Mesh    2
       Max CFL number:  0.84E+00 at (   3,  11,   8)
       Max divergence:  0.39E+01 at (   8,  12,   8)
       Min divergence: -0.26E+01 at (   4,  11,   9)
       Max VN number:   0.39E+00 at (   2,  10,   9)

       Time Step     900   February 22, 2017  16:20:17
       Step Size:    0.135E-01 s, Total Time:      24.34 s
       Pressure Iterations:     10
       Maximum Velocity Error:  0.21E+00 on Mesh   2 at (   3   1   6)
       Maximum Pressure Error:  0.21E+02 on Mesh   2 at (   4   6   1)
       ---------------------------------------------------------------
       Mesh    1
       Max CFL number:  0.41E+00 at (  27,  15,  23)
       Max divergence:  0.20E+01 at (  26,  15,  21)
       Min divergence: -0.17E+01 at (  27,  15,  23)
       Max VN number:   0.17E+00 at (  26,  17,  24)
       Total Heat Release Rate:      106210632.268 kW
       Radiation Loss to Boundaries:  -9182726.110 kW
       Mesh    2
       Max CFL number:  0.86E+00 at (   4,  12,   7)
       Max divergence:  0.48E+01 at (   4,  13,   8)
       Min divergence: -0.66E+01 at (   3,   5,   1)
       Max VN number:   0.54E+00 at (   2,   9,   9)

       Time Step    1000   February 22, 2017  16:20:56
       Step Size:    0.197E-01 s, Total Time:      25.97 s
       Pressure Iterations:     10
       Maximum Velocity Error:  0.11E+00 on Mesh   2 at (   3   8   1)
       Maximum Pressure Error:  0.33E+01 on Mesh   1 at (  16  20   1)
       ---------------------------------------------------------------
       Mesh    1
       Max CFL number:  0.41E+00 at (  27,  15,  23)
       Max divergence:  0.27E+01 at (  19,  18,   1)
       Min divergence: -0.18E+01 at (  19,  17,   9)
       Max VN number:   0.19E+00 at (  26,  14,  21)
       Total Heat Release Rate:      107135343.755 kW
       Radiation Loss to Boundaries: -16260198.055 kW
       Mesh    2
       Max CFL number:  0.96E+00 at (   2,   9,   8)
       Max divergence:  0.12E+01 at (   3,   5,   9)
       Min divergence: -0.15E+01 at (   4,   3,   5)
       Max VN number:   0.45E+00 at (   2,   8,   9)

       Time Step    1100   February 22, 2017  16:21:36
       Step Size:    0.159E-01 s, Total Time:      27.68 s
       Pressure Iterations:     10
       Maximum Velocity Error:  0.98E-01 on Mesh   2 at (   3   2   6)
       Maximum Pressure Error:  0.14E+01 on Mesh   2 at (   8   9   1)
       ---------------------------------------------------------------
       Mesh    1
       Max CFL number:  0.42E+00 at (  27,  15,  23)
       Max divergence:  0.17E+01 at (  18,  20,   1)
       Min divergence: -0.82E+00 at (  18,  19,  12)
       Max VN number:   0.19E+00 at (  27,  15,  23)
       Total Heat Release Rate:      120751190.030 kW
       Radiation Loss to Boundaries: -14987379.802 kW
       Mesh    2
       Max CFL number:  0.95E+00 at (   3,  13,   8)
       Max divergence:  0.19E+01 at (   3,  13,   9)
       Min divergence: -0.23E+01 at (   3,   4,   8)
       Max VN number:   0.45E+00 at (   2,  10,   9)

       Time Step    1200   February 22, 2017  16:22:15
       Step Size:    0.174E-01 s, Total Time:      29.27 s
       Pressure Iterations:     10
       Maximum Velocity Error:  0.17E+00 on Mesh   2 at (   1   8  13)
       Maximum Pressure Error:  0.57E+01 on Mesh   1 at (  18  19   1)
       ---------------------------------------------------------------
       Mesh    1
       Max CFL number:  0.44E+00 at (  27,  15,  23)
       Max divergence:  0.18E+01 at (  18,  14,   1)
       Min divergence: -0.11E+01 at (  27,  15,  23)
       Max VN number:   0.19E+00 at (  26,  15,  24)
       Total Heat Release Rate:      107447790.862 kW
       Radiation Loss to Boundaries:  -8670345.495 kW
       Mesh    2
       Max CFL number:  0.86E+00 at (   3,   6,   8)
       Max divergence:  0.20E+01 at (   8,   8,  13)
       Min divergence: -0.23E+01 at (   3,  13,   8)
       Max VN number:   0.50E+00 at (   2,   8,   9)

       Time Step    1300   February 22, 2017  16:22:53
       Step Size:    0.156E-01 s, Total Time:      30.87 s
       Pressure Iterations:      4
       Maximum Velocity Error:  0.83E+00 on Mesh   2 at (   3   1   6)
       Maximum Pressure Error:  0.33E+02 on Mesh   2 at (   2   1   4)
       ---------------------------------------------------------------
       Mesh    1
       Max CFL number:  0.38E+00 at (  27,  15,  23)
       Max divergence:  0.20E+01 at (  17,  14,   1)
       Min divergence: -0.14E+01 at (  27,  15,  23)
       Max VN number:   0.14E+00 at (  26,  15,  24)
       Total Heat Release Rate:       87251641.692 kW
       Radiation Loss to Boundaries:  -3418205.254 kW
       Mesh    2
       Max CFL number:  0.98E+00 at (   3,  13,   8)
       Max divergence:  0.26E+01 at (   3,  13,   9)
       Min divergence: -0.30E+01 at (   3,  13,   8)
       Max VN number:   0.39E+00 at (   2,  14,   7)

       Time Step    1400   February 22, 2017  16:23:30
       Step Size:    0.187E-01 s, Total Time:      32.49 s
       Pressure Iterations:     10
       Maximum Velocity Error:  0.14E+00 on Mesh   2 at (   3  11   1)
       Maximum Pressure Error:  0.23E+01 on Mesh   1 at (  18  14   1)
       ---------------------------------------------------------------
       Mesh    1
       Max CFL number:  0.38E+00 at (  27,  17,  23)
       Max divergence:  0.19E+01 at (  18,  14,   1)
       Min divergence: -0.89E+00 at (  26,  18,  24)
       Max VN number:   0.18E+00 at (  27,  15,  23)
       Total Heat Release Rate:       83902006.586 kW
       Radiation Loss to Boundaries:  -7673329.321 kW
       Mesh    2
       Max CFL number:  0.85E+00 at (   3,  11,   8)
       Max divergence:  0.17E+01 at (   3,  12,   9)
       Min divergence: -0.18E+01 at (   3,   4,   5)
       Max VN number:   0.50E+00 at (   2,  10,   9)

       Time Step    1500   February 22, 2017  16:24:08
       Step Size:    0.202E-01 s, Total Time:      34.33 s
       Pressure Iterations:     10
       Maximum Velocity Error:  0.73E-01 on Mesh   2 at (   3   8  12)
       Maximum Pressure Error:  0.12E+01 on Mesh   1 at (  44  25  31)
       ---------------------------------------------------------------
       Mesh    1
       Max CFL number:  0.37E+00 at (  27,  19,  23)
       Max divergence:  0.23E+01 at (  14,  17,   1)
       Min divergence: -0.78E+00 at (  26,  16,  24)
       Max VN number:   0.16E+00 at (  26,  18,  24)
       Total Heat Release Rate:       88207179.992 kW
       Radiation Loss to Boundaries:  -6831095.987 kW
       Mesh    2
       Max CFL number:  0.82E+00 at (   3,  13,   7)
       Max divergence:  0.19E+01 at (   3,  13,   9)
       Min divergence: -0.17E+01 at (   3,  13,   8)
       Max VN number:   0.37E+00 at (   2,  14,   7)

       Time Step    1600   February 22, 2017  16:24:46
       Step Size:    0.197E-01 s, Total Time:      36.33 s
       Pressure Iterations:     10
       Maximum Velocity Error:  0.12E+00 on Mesh   2 at (   3   1   7)
       Maximum Pressure Error:  0.12E+01 on Mesh   2 at (   7  12   4)
       ---------------------------------------------------------------
       Mesh    1
       Max CFL number:  0.40E+00 at (  27,  19,  23)
       Max divergence:  0.25E+01 at (  17,  15,   1)
       Min divergence: -0.98E+00 at (  27,  19,  23)
       Max VN number:   0.15E+00 at (  26,  17,  24)
       Total Heat Release Rate:       86015193.921 kW
       Radiation Loss to Boundaries:  -7734108.154 kW
       Mesh    2
       Max CFL number:  0.92E+00 at (   3,   9,   8)
       Max divergence:  0.16E+01 at (   3,  13,   3)
       Min divergence: -0.17E+01 at (   3,  12,   8)
       Max VN number:   0.51E+00 at (   2,  10,   9)

       Time Step    1700   February 22, 2017  16:25:25
       Step Size:    0.210E-01 s, Total Time:      38.33 s
       Pressure Iterations:     10
       Maximum Velocity Error:  0.70E-01 on Mesh   2 at (   3   1   6)
       Maximum Pressure Error:  0.98E+00 on Mesh   1 at (  41  21  31)
       ---------------------------------------------------------------
       Mesh    1
       Max CFL number:  0.38E+00 at (  26,  18,  23)
       Max divergence:  0.15E+01 at (  20,  14,   1)
       Min divergence: -0.95E+00 at (  16,  18,  18)
       Max VN number:   0.17E+00 at (  26,  20,  21)
       Total Heat Release Rate:      103751399.596 kW
       Radiation Loss to Boundaries: -11615616.029 kW
       Mesh    2
       Max CFL number:  0.97E+00 at (   3,  13,   8)
       Max divergence:  0.15E+01 at (   8,  13,   5)
       Min divergence: -0.14E+01 at (   3,  13,   3)
       Max VN number:   0.41E+00 at (   2,  10,   9)

       Time Step    1788   February 22, 2017  16:26:00
       Step Size:    0.759E-02 s, Total Time:      40.00 s
       Pressure Iterations:     10
       Maximum Velocity Error:  0.16E+00 on Mesh   2 at (   3  14  12)
       Maximum Pressure Error:  0.32E+01 on Mesh   1 at (  14  18   1)
       ---------------------------------------------------------------
       Mesh    1
       Max CFL number:  0.16E+00 at (  27,  19,  23)
       Max divergence:  0.14E+01 at (  19,  20,   1)
       Min divergence: -0.69E+00 at (  19,  17,   2)
       Max VN number:   0.83E-01 at (  27,  18,  21)
       Total Heat Release Rate:       94423869.429 kW
       Radiation Loss to Boundaries:  -9110369.241 kW
       Mesh    2
       Max CFL number:  0.44E+00 at (   3,  13,   8)
       Max divergence:  0.11E+01 at (   8,   7,  12)
       Min divergence: -0.14E+01 at (   8,   5,   8)
       Max VN number:   0.19E+00 at (   2,  11,   9)



 Time Stepping Wall Clock Time (s):      688.638
 Total Elapsed Wall Clock Time (s):      692.629

STOP: FDS completed successfully (CHID: room)
