
 Fire Dynamics Simulator

 Current Date     : February 22, 2017  09:01:07
 Version          : FDS 6.4.0
 Revision         : Git-r10-48-g5996289
 Revision Date    : Thu Apr 7 11:24:39 2016 -0400
 Compilation Date : Apr 07, 2016  11:43:03

 MPI Enabled; Number of MPI Processes:     1
 OpenMP Enabled; Number of OpenMP Threads:   4

 MPI version: 3.0
 MPI library version: Open MPI v1.8.4, package: Open MPI gforney@blaze Distribution, ident: 1.8.4, repo rev: v1.8.3-330-g0344f04, Dec 19, 2014

 Job TITLE        : room fire
 Job ID string    : room


 Grid Dimensions, Mesh     1

   Cells in the X Direction            52
   Cells in the Y Direction            32
   Cells in the Z Direction            31


 Physical Dimensions, Mesh     1

   Length (m)                     520.000
   Width  (m)                     320.000
   Height (m)                     310.000
   Initial Time Step (s)            0.449

 Grid Dimensions, Mesh     2

   Cells in the X Direction             8
   Cells in the Y Direction            16
   Cells in the Z Direction            24


 Physical Dimensions, Mesh     2

   Length (m)                      40.000
   Width  (m)                      80.000
   Height (m)                     120.000
   Initial Time Step (s)            0.449


 Miscellaneous Parameters

   Simulation Start Time (s)          0.0
   Simulation End Time (s)           40.0
   LES Calculation
   Deardorff Model (C_DEARDORFF)     0.10
   Turbulent Prandtl Number          0.50
   Turbulent Schmidt Number          0.50
   Ambient Temperature (C)          20.00


 Mass Fraction Transformation Matrix to Convert Species Mixtures (Columns) to Primitive Species (Rows)

                         AIR       POLYURET  PRODUCTS
   POLYURETHANE          0.000000  1.000000  0.000000
   NITROGEN              0.763077  0.000000  0.684436
   OXYGEN                0.231181  0.000000  0.000000
   CARBON DIOXIDE        0.000592  0.000000  0.251122
   CARBON MONOXIDE       0.000000  0.000000  0.000000
   WATER VAPOR           0.005149  0.000000  0.063242
   SOOT                  0.000000  0.000000  0.001199


 Primitive Species Information

   POLYURETHANE
   Gas Species
   Molecular Weight (g/mol)           130.42922
   Ambient Density (kg/m^3)            5.422
   Enthalpy of Formation (J/kg)       -3.03E+06

   NITROGEN
   Gas Species
   Molecular Weight (g/mol)            28.01340
   Ambient Density (kg/m^3)            1.165
   Enthalpy of Formation (J/kg)        0.00E+00

   OXYGEN
   Gas Species
   Molecular Weight (g/mol)            31.99880
   Ambient Density (kg/m^3)            1.330
   Enthalpy of Formation (J/kg)        0.00E+00

   CARBON DIOXIDE
   Gas Species
   Molecular Weight (g/mol)            44.00950
   Ambient Density (kg/m^3)            1.830
   Enthalpy of Formation (J/kg)       -8.94E+06

   CARBON MONOXIDE
   Gas Species
   Molecular Weight (g/mol)            28.01010
   Ambient Density (kg/m^3)            1.164
   Enthalpy of Formation (J/kg)       -3.95E+06

   WATER VAPOR
   Gas Species
   Molecular Weight (g/mol)            18.01528
   Ambient Density (kg/m^3)            0.749
   Enthalpy of Formation (J/kg)       -1.34E+07

   SOOT
   Gas Species
   Molecular Weight (g/mol)            10.91042
   Ambient Density (kg/m^3)            0.454
   Enthalpy of Formation (J/kg)        0.00E+00


 Tracked (Lumped) Species Information

   AIR
   Molecular Weight (g/mol)            28.76564
   Ambient Density (kg/m^3)            1.196
   Initial Mass Fraction               1.000
   Enthalpy of Formation (J/kg)     -7.44E+04

   Sub Species                    Mass Fraction     Mole Fraction
   NITROGEN                       7.630774E-01      7.835682E-01
   OXYGEN                         2.311814E-01      2.078229E-01
   CARBON DIOXIDE                 5.919362E-04      3.869034E-04
   WATER VAPOR                    5.149269E-03      8.222023E-03
 
   Viscosity (kg/m/s)   Ambient (293 K):  1.80E-05
                                  500 K:  2.61E-05
                                 1000 K:  4.13E-05
                                 1500 K:  5.37E-05
   Therm. Cond. (W/m/K) Ambient (293 K):  2.56E-02
                                  500 K:  3.81E-02
                                 1000 K:  6.68E-02
                                 1500 K:  9.24E-02
   Spec. Heat (J/kg/K)  Ambient (293 K):  1.02E+03
                                  500 K:  1.04E+03
                                 1000 K:  1.16E+03
                                 1500 K:  1.23E+03
   Diff. Coeff. (m^2/s) Ambient (293 K):  1.99E-05
                                  500 K:  4.96E-05
                                 1000 K:  1.58E-04
                                 1500 K:  3.09E-04

   POLYURETHANE
   Molecular Weight (g/mol)           130.42922
   Ambient Density (kg/m^3)            5.422
   Initial Mass Fraction               0.000
   Enthalpy of Formation (J/kg)     -3.03E+06

   Sub Species                    Mass Fraction     Mole Fraction
   POLYURETHANE                   1.000000E+00      1.000000E+00
 
   Viscosity (kg/m/s)   Ambient (293 K):  3.85E-05
                                  500 K:  5.59E-05
                                 1000 K:  8.80E-05
                                 1500 K:  1.14E-04
   Therm. Cond. (W/m/K) Ambient (293 K):  1.72E-02
                                  500 K:  2.49E-02
                                 1000 K:  3.93E-02
                                 1500 K:  5.11E-02
   Spec. Heat (J/kg/K)  Ambient (293 K):  2.23E+02
                                  500 K:  2.23E+02
                                 1000 K:  2.23E+02
                                 1500 K:  2.23E+02
   Diff. Coeff. (m^2/s) Ambient (293 K):  1.57E-05
                                  500 K:  3.90E-05
                                 1000 K:  1.24E-04
                                 1500 K:  2.43E-04

   PRODUCTS
   Molecular Weight (g/mol)            29.62178
   Ambient Density (kg/m^3)            1.231
   Initial Mass Fraction               0.000
   Enthalpy of Formation (J/kg)     -3.09E+06

   Sub Species                    Mass Fraction     Mole Fraction
   NITROGEN                       6.844363E-01      7.237328E-01
   CARBON DIOXIDE                 2.511223E-01      1.690246E-01
   CARBON MONOXIDE                0.000000E+00      0.000000E+00
   WATER VAPOR                    6.324206E-02      1.039863E-01
   SOOT                           1.199367E-03      3.256280E-03
 
   Viscosity (kg/m/s)   Ambient (293 K):  1.63E-05
                                  500 K:  2.41E-05
                                 1000 K:  3.91E-05
                                 1500 K:  5.14E-05
   Therm. Cond. (W/m/K) Ambient (293 K):  2.31E-02
                                  500 K:  3.60E-02
                                 1000 K:  6.63E-02
                                 1500 K:  9.41E-02
   Spec. Heat (J/kg/K)  Ambient (293 K):  1.04E+03
                                  500 K:  1.10E+03
                                 1000 K:  1.26E+03
                                 1500 K:  1.35E+03
   Diff. Coeff. (m^2/s) Ambient (293 K):  1.92E-05
                                  500 K:  4.85E-05
                                 1000 K:  1.56E-04
                                 1500 K:  3.06E-04


 Gas Phase Reaction Information

   C_6.3 H_7.1 N O_2.1, NFPA Handbook, Babrauskas

   Fuel                                           Heat of Combustion (kJ/kg)
   POLYURETHANE                                                   22222.1389

   Stoichiometry

   Primitive Species
   Species ID                                                 Stoich. Coeff.
   POLYURETHANE                                                    -1.000000
   NITROGEN                                                         0.500000
   OXYGEN                                                          -6.914420
   CARBON DIOXIDE                                                   6.192409
   WATER VAPOR                                                      3.544023
   SOOT                                                             0.119546

   Tracked (Lumped) Species
   Species ID                                                 Stoich. Coeff.
   AIR                                                            -33.270741
   POLYURETHANE                                                    -1.000000
   PRODUCTS                                                        36.712298

   Reaction Kinetics

   Arrhenius Parameters
   Pre-exponential:    Infinite
   Activation Energy:  N/A

   ODE Solver:  EXPLICIT EULER
   Extinction Model:  EXTINCTION 2
   Ignition Temperature (K):            0.0
   Critical Flame Temperature (K):   1600.2


 Material Information


 Surface Conditions

   0 INERT (DEFAULT)

   1 FIRE
     HRR Per Unit Area (kW/m2)     250000.0
     POLYURETHANE Mass Flux (kg/s/m2)   1.13E+01

   2 OPEN
     Passive Vent to Atmosphere

   3 MIRROR
     Symmetry Plane

   4 INTERPOLATED

   5 PERIODIC

   6 HVAC

   7 MASSLESS TRACER

   8 DROPLET

   9 VEGETATION

  10 EVACUATION_OUTFLOW
     Normal Velocity (m/s)         0.000

  11 MASSLESS TARGET


 Slice File Information, Mesh     1

   Sampling Interval (s)             0.040

   1 Nodes:   0  52   0  32  13  13, Quantity: TEMPERATURE
   2 Nodes:  25  29  12  20  19  31, Quantity: VELOCITY
   3 Nodes:  25  29  12  20  19  31, Quantity: U-VELOCITY
   4 Nodes:  25  29  12  20  19  31, Quantity: V-VELOCITY
   5 Nodes:  25  29  12  20  19  31, Quantity: W-VELOCITY


 Slice File Information, Mesh     2

   Sampling Interval (s)             0.040

   1 Nodes:   0   8   0  16   0  24, Quantity: VELOCITY
   2 Nodes:   0   8   0  16   0  24, Quantity: U-VELOCITY
   3 Nodes:   0   8   0  16   0  24, Quantity: V-VELOCITY
   4 Nodes:   0   8   0  16   0  24, Quantity: W-VELOCITY


 Radiation Model Information

   Number of control angles  104
   Time step increment         3
   Angle increment             5
   Theta band N_phi   Solid angle
     1:        4  0.12
     2:       12  0.11
     3:       16  0.13
     4:       20  0.12
     5:       20  0.12
     6:       16  0.13
     7:       12  0.11
     8:        4  0.12
   Using gray gas absorption.
   Mean beam length 10.000 m
 
 

 Run Time Diagnostics

       Time Step       1   February 22, 2017  09:01:11
       Step Size:    0.449E+00 s, Total Time:       0.45 s
       Pressure Iterations:      1
       Maximum Velocity Error:  0.29E+00 on Mesh   1 at (  17   7   1)
       ---------------------------------------------------------------
       Mesh    1
       Max CFL number:  0.40E-01 at ( 17, 16,  1)
       Max divergence:  0.40E+01 at ( 16, 16,  1)
       Min divergence: -0.38E-03 at ( 18, 16,  1)
       Max VN number:   0.11E-02 at ( 13, 21, 25)
       Total Heat Release Rate:        5680397.297 kW
       Radiation Loss to Boundaries:         0.024 kW
       Mesh    2
       Max CFL number:  0.16E-02 at (  7, 12, 21)
       Max divergence:  0.10E-05 at (  5, 13, 19)
       Min divergence: -0.11E-05 at (  6, 14, 17)
       Max VN number:   0.15E-02 at (  2, 14, 13)
 
       Time Step       2   February 22, 2017  09:01:13
       Step Size:    0.315E+00 s, Total Time:       0.76 s
       Pressure Iterations:      1
       Maximum Velocity Error:  0.23E+00 on Mesh   1 at (  17  27   1)
       ---------------------------------------------------------------
       Mesh    1
       Max CFL number:  0.72E+00 at ( 16, 16,  1)
       Max divergence:  0.27E+01 at ( 17, 17,  1)
       Min divergence: -0.34E-01 at ( 15, 16,  1)
       Max VN number:   0.90E+00 at ( 17, 16,  1)
       Total Heat Release Rate:        6002555.254 kW
       Radiation Loss to Boundaries:    -36803.732 kW
       Mesh    2
       Max CFL number:  0.21E-02 at (  2, 16,  1)
       Max divergence:  0.36E-05 at (  2, 16,  1)
       Min divergence: -0.10E-05 at (  6, 14, 17)
       Max VN number:   0.13E-02 at (  2, 16,  1)
 
       Time Step       3   February 22, 2017  09:01:15
       Step Size:    0.257E+00 s, Total Time:       1.02 s
       Pressure Iterations:      1
       Maximum Velocity Error:  0.28E+00 on Mesh   1 at (  17  27   1)
       ---------------------------------------------------------------
       Mesh    1
       Max CFL number:  0.94E+00 at ( 16, 16,  1)
       Max divergence:  0.17E+01 at ( 15, 16,  1)
       Min divergence: -0.11E-05 at ( 43,  4, 28)
       Max VN number:   0.12E+00 at ( 15, 16,  1)
       Total Heat Release Rate:        8870742.761 kW
       Radiation Loss to Boundaries:   -567833.391 kW
       Mesh    2
       Max CFL number:  0.35E-02 at (  2, 16,  1)
       Max divergence:  0.85E-05 at (  2, 16,  1)
       Min divergence: -0.52E-06 at (  7, 15, 16)
       Max VN number:   0.16E-02 at (  2, 16,  1)
 
       Time Step       4   February 22, 2017  09:01:18
       Step Size:    0.257E+00 s, Total Time:       1.28 s
       Pressure Iterations:      1
       Maximum Velocity Error:  0.18E+00 on Mesh   1 at (   7  27   1)
       ---------------------------------------------------------------
       Mesh    1
       Max CFL number:  0.59E+00 at ( 16, 16,  1)
       Max divergence:  0.11E+01 at ( 16, 18,  1)
       Min divergence: -0.70E-02 at ( 16, 16,  2)
       Max VN number:   0.92E-01 at ( 16, 16,  1)
       Total Heat Release Rate:        8538534.799 kW
       Radiation Loss to Boundaries:  -1130577.046 kW
       Mesh    2
       Max CFL number:  0.45E-02 at (  2, 16,  1)
       Max divergence:  0.12E-04 at (  2, 16,  1)
       Min divergence: -0.17E-06 at (  7, 15, 16)
       Max VN number:   0.18E-02 at (  2, 16,  1)
 
       Time Step       5   February 22, 2017  09:01:19
       Step Size:    0.283E+00 s, Total Time:       1.56 s
       Pressure Iterations:      1
       Maximum Velocity Error:  0.13E+00 on Mesh   1 at (  27  26   1)
       ---------------------------------------------------------------
       Mesh    1
       Max CFL number:  0.55E+00 at ( 16, 16,  1)
       Max divergence:  0.48E+00 at ( 15, 15,  1)
       Min divergence: -0.52E-01 at ( 16, 16,  2)
       Max VN number:   0.89E-01 at ( 16, 16,  1)
       Total Heat Release Rate:        7247707.050 kW
       Radiation Loss to Boundaries:  -2860477.613 kW
       Mesh    2
       Max CFL number:  0.71E-02 at (  2,  4,  3)
       Max divergence:  0.17E-04 at (  2, 15,  1)
       Min divergence: -0.79E-06 at (  3, 11,  2)
       Max VN number:   0.23E-02 at (  2, 16,  1)
 
       Time Step       6   February 22, 2017  09:01:21
       Step Size:    0.311E+00 s, Total Time:       1.87 s
       Pressure Iterations:      1
       Maximum Velocity Error:  0.27E+00 on Mesh   1 at (  17   7   1)
       ---------------------------------------------------------------
       Mesh    1
       Max CFL number:  0.30E+00 at ( 17, 17,  1)
       Max divergence:  0.34E+00 at ( 17, 17,  1)
       Min divergence: -0.45E+00 at ( 18, 16,  1)
       Max VN number:   0.73E-01 at ( 17, 16,  1)
       Total Heat Release Rate:        6328514.721 kW
       Radiation Loss to Boundaries:  -5233204.067 kW
       Mesh    2
       Max CFL number:  0.15E-01 at (  2,  4,  3)
       Max divergence:  0.24E-04 at (  2,  5,  1)
       Min divergence: -0.42E-05 at (  3,  9,  1)
       Max VN number:   0.29E-02 at (  3,  4,  3)
 
       Time Step       7   February 22, 2017  09:01:23
       Step Size:    0.342E+00 s, Total Time:       2.21 s
       Pressure Iterations:      1
       Maximum Velocity Error:  0.11E+00 on Mesh   1 at (  17  27   1)
       ---------------------------------------------------------------
       Mesh    1
       Max CFL number:  0.29E+00 at ( 18, 16,  1)
       Max divergence:  0.58E+00 at ( 17, 15,  1)
       Min divergence: -0.13E+00 at ( 16, 16,  2)
       Max VN number:   0.74E-01 at ( 15, 16,  1)
       Total Heat Release Rate:        6271575.689 kW
       Radiation Loss to Boundaries:  -2283858.859 kW
       Mesh    2
       Max CFL number:  0.28E-01 at (  2,  4,  3)
       Max divergence:  0.32E-04 at (  2,  6,  1)
       Min divergence: -0.11E-04 at (  3,  9,  1)
       Max VN number:   0.60E-02 at (  3,  4,  3)
 
       Time Step       8   February 22, 2017  09:01:25
       Step Size:    0.376E+00 s, Total Time:       2.59 s
       Pressure Iterations:      1
       Maximum Velocity Error:  0.17E+00 on Mesh   1 at (  17   7   1)
       ---------------------------------------------------------------
       Mesh    1
       Max CFL number:  0.51E+00 at ( 18, 16,  1)
       Max divergence:  0.35E+00 at ( 17, 16,  1)
       Min divergence: -0.58E+00 at ( 16, 17,  2)
       Max VN number:   0.15E+00 at ( 16, 16,  1)
       Total Heat Release Rate:        5193176.683 kW
       Radiation Loss to Boundaries:  -3539480.196 kW
       Mesh    2
       Max CFL number:  0.50E-01 at (  2,  4,  3)
       Max divergence:  0.42E-04 at (  2,  8,  1)
       Min divergence: -0.22E-04 at (  3,  9,  1)
       Max VN number:   0.12E-01 at (  3,  4,  3)
 
       Time Step       9   February 22, 2017  09:01:27
       Step Size:    0.414E+00 s, Total Time:       3.00 s
       Pressure Iterations:      1
       Maximum Velocity Error:  0.14E+00 on Mesh   2 at (   3  16   1)
       ---------------------------------------------------------------
       Mesh    1
       Max CFL number:  0.57E+00 at ( 17, 16,  2)
       Max divergence:  0.96E+00 at ( 16, 15,  1)
       Min divergence: -0.22E+00 at ( 18, 16,  2)
       Max VN number:   0.23E+00 at ( 15, 16,  1)
       Total Heat Release Rate:        6195515.872 kW
       Radiation Loss to Boundaries:  -1825453.255 kW
       Mesh    2
       Max CFL number:  0.84E-01 at (  2, 13,  3)
       Max divergence:  0.59E-04 at (  2,  8,  1)
       Min divergence: -0.33E-04 at (  3,  9,  1)
       Max VN number:   0.21E-01 at (  3,  4,  3)
 
       Time Step      10   February 22, 2017  09:01:30
       Step Size:    0.283E+00 s, Total Time:       3.29 s
       Pressure Iterations:      1
       Maximum Velocity Error:  0.12E+00 on Mesh   2 at (   3  16   1)
       ---------------------------------------------------------------
       Mesh    1
       Max CFL number:  0.81E+00 at ( 18, 16,  1)
       Max divergence:  0.13E+01 at ( 17, 16,  1)
       Min divergence: -0.39E+00 at ( 16, 17,  2)
       Max VN number:   0.24E+00 at ( 15, 17,  1)
       Total Heat Release Rate:        7586845.356 kW
       Radiation Loss to Boundaries:  -1732336.429 kW
       Mesh    2
       Max CFL number:  0.79E-01 at (  2, 13,  3)
       Max divergence:  0.71E-04 at (  2,  8,  1)
       Min divergence: -0.43E-04 at (  3,  9,  1)
       Max VN number:   0.22E-01 at (  3,  4,  3)
 
       Time Step      20   February 22, 2017  09:01:46
       Step Size:    0.285E+00 s, Total Time:       5.38 s
       Pressure Iterations:      1
       Maximum Velocity Error:  0.20E+00 on Mesh   2 at (   3  16   1)
       ---------------------------------------------------------------
       Mesh    1
       Max CFL number:  0.97E+00 at ( 15, 18,  2)
       Max divergence:  0.17E+01 at ( 17, 14,  1)
       Min divergence: -0.27E+00 at ( 18, 16,  3)
       Max VN number:   0.37E+00 at ( 18, 18,  1)
       Total Heat Release Rate:       22307664.877 kW
       Radiation Loss to Boundaries:  -7842945.438 kW
       Mesh    2
       Max CFL number:  0.46E+00 at (  2, 13,  3)
       Max divergence:  0.30E-03 at (  2,  8,  1)
       Min divergence: -0.25E-03 at (  3, 11,  2)
       Max VN number:   0.15E+00 at (  2, 13,  3)
 
       Time Step      30   February 22, 2017  09:01:58
       Step Size:    0.177E+00 s, Total Time:       7.47 s
       Pressure Iterations:      1
       Maximum Velocity Error:  0.44E+00 on Mesh   2 at (   3  14   4)
       ---------------------------------------------------------------
       Mesh    1
       Max CFL number:  0.88E+00 at ( 18, 15,  6)
       Max divergence:  0.18E+01 at ( 14, 15,  1)
       Min divergence: -0.51E+00 at ( 17, 16,  5)
       Max VN number:   0.27E+00 at ( 18, 15,  1)
       Total Heat Release Rate:       39636645.511 kW
       Radiation Loss to Boundaries: -13809456.294 kW
       Mesh    2
       Max CFL number:  0.61E+00 at (  2, 13,  4)
       Max divergence:  0.97E-03 at (  2, 10,  2)
       Min divergence: -0.68E-03 at (  2, 11,  9)
       Max VN number:   0.24E+00 at (  2, 13,  3)
 
       Time Step      40   February 22, 2017  09:02:10
       Step Size:    0.133E+00 s, Total Time:       8.95 s
       Pressure Iterations:      1
       Maximum Velocity Error:  0.78E+00 on Mesh   2 at (   3  16   6)
       ---------------------------------------------------------------
       Mesh    1
       Max CFL number:  0.98E+00 at ( 17, 15,  9)
       Max divergence:  0.17E+01 at ( 17, 19,  1)
       Min divergence: -0.49E+00 at ( 17, 17,  4)
       Max VN number:   0.35E+00 at ( 18, 18, 12)
       Total Heat Release Rate:       61298884.745 kW
       Radiation Loss to Boundaries: -17088009.691 kW
       Mesh    2
       Max CFL number:  0.83E+00 at (  2, 13,  7)
       Max divergence:  0.20E-02 at (  2, 10,  2)
       Min divergence: -0.15E-02 at (  2, 10,  9)
       Max VN number:   0.30E+00 at (  2, 14,  6)
 
       Time Step      50   February 22, 2017  09:02:22
       Step Size:    0.856E-01 s, Total Time:       9.95 s
       Pressure Iterations:      1
       Maximum Velocity Error:  0.10E+01 on Mesh   2 at (   3  14   6)
       ---------------------------------------------------------------
       Mesh    1
       Max CFL number:  0.88E+00 at ( 17, 16, 10)
       Max divergence:  0.19E+01 at ( 15, 17,  1)
       Min divergence: -0.48E+00 at ( 18, 16,  4)
       Max VN number:   0.21E+00 at ( 17, 16, 13)
       Total Heat Release Rate:       97520415.771 kW
       Radiation Loss to Boundaries: -28828949.488 kW
       Mesh    2
       Max CFL number:  0.87E+00 at (  2, 13,  7)
       Max divergence:  0.32E-02 at (  2, 10,  2)
       Min divergence: -0.25E-02 at (  2, 10,  9)
       Max VN number:   0.33E+00 at (  2, 14,  8)
 
       Time Step      60   February 22, 2017  09:02:33
       Step Size:    0.657E-01 s, Total Time:      10.70 s
       Pressure Iterations:      1
       Maximum Velocity Error:  0.11E+01 on Mesh   2 at (   3  14   8)
       ---------------------------------------------------------------
       Mesh    1
       Max CFL number:  0.78E+00 at ( 17, 16,  9)
       Max divergence:  0.13E+01 at ( 14, 16,  1)
       Min divergence: -0.48E+00 at ( 17, 18,  2)
       Max VN number:   0.18E+00 at ( 18, 18, 14)
       Total Heat Release Rate:       75724540.659 kW
       Radiation Loss to Boundaries: -20310835.871 kW
       Mesh    2
       Max CFL number:  0.96E+00 at (  2, 10,  3)
       Max divergence:  0.44E-02 at (  2, 10,  2)
       Min divergence: -0.37E-02 at (  2,  6,  9)
       Max VN number:   0.38E+00 at (  2, 14,  8)
 
       Time Step      70   February 22, 2017  09:02:45
       Step Size:    0.522E-01 s, Total Time:      11.26 s
       Pressure Iterations:      1
       Maximum Velocity Error:  0.68E+00 on Mesh   2 at (   3  14   6)
       ---------------------------------------------------------------
       Mesh    1
       Max CFL number:  0.58E+00 at ( 17, 16, 11)
       Max divergence:  0.18E+01 at ( 14, 19,  1)
       Min divergence: -0.68E+00 at ( 15, 16,  2)
       Max VN number:   0.15E+00 at ( 26, 19, 23)
       Total Heat Release Rate:       74307923.038 kW
       Radiation Loss to Boundaries: -15521418.586 kW
       Mesh    2
       Max CFL number:  0.98E+00 at (  2, 13,  3)
       Max divergence:  0.53E-02 at (  2, 10,  2)
       Min divergence: -0.48E-02 at (  2,  6,  9)
       Max VN number:   0.39E+00 at (  2, 14,  7)
 
       Time Step      80   February 22, 2017  09:02:57
       Step Size:    0.410E-01 s, Total Time:      11.72 s
       Pressure Iterations:      1
       Maximum Velocity Error:  0.66E+00 on Mesh   2 at (   3  14   3)
       ---------------------------------------------------------------
       Mesh    1
       Max CFL number:  0.41E+00 at ( 17, 16, 13)
       Max divergence:  0.18E+01 at ( 14, 16,  1)
       Min divergence: -0.92E+00 at ( 16, 16,  5)
       Max VN number:   0.12E+00 at ( 26, 19, 23)
       Total Heat Release Rate:       77041216.943 kW
       Radiation Loss to Boundaries: -21144381.640 kW
       Mesh    2
       Max CFL number:  0.91E+00 at (  2,  9,  3)
       Max divergence:  0.60E-02 at (  2,  8,  2)
       Min divergence: -0.55E-02 at (  2,  6,  9)
       Max VN number:   0.41E+00 at (  4, 13,  3)
 
