
 Fire Dynamics Simulator

 Current Date     : February 23, 2017  12:04:02
 Version          : FDS 6.5.3
 Revision         : FDS6.5.3-801-ga75adfa
 Revision Date    : Mon Feb 20 14:43:26 2017 -0500
 Compilation Date : Feb 21, 2017  14:05:49

 MPI Disabled
 OpenMP Enabled; Number of OpenMP Threads:   4

 Job TITLE        : room fire
 Job ID string    : room


 Grid Dimensions, Mesh     1

   Cells in the X Direction            52
   Cells in the Y Direction            32
   Cells in the Z Direction            31


 Physical Dimensions, Mesh     1

   Length (m)                     520.000
   Width  (m)                     320.000
   Height (m)                     310.000
   Initial Time Step (s)            0.180

 Grid Dimensions, Mesh     2

   Cells in the X Direction            20
   Cells in the Y Direction            40
   Cells in the Z Direction            60


 Physical Dimensions, Mesh     2

   Length (m)                      40.000
   Width  (m)                      80.000
   Height (m)                     120.000
   Initial Time Step (s)            0.180


 Miscellaneous Parameters

   Simulation Start Time (s)          0.0
   Simulation End Time (s)           40.0
   LES Calculation
   Deardorff Model (C_DEARDORFF)     0.10
   Turbulent Prandtl Number          0.50
   Turbulent Schmidt Number          0.50
   Ambient Temperature (C)          20.00


 Mass Fraction Transformation Matrix to Convert Species Mixtures (Columns) to Primitive Species (Rows)

                         AIR       POLYURET  PRODUCTS
   POLYURETHANE          0.000000  1.000000  0.000000
   NITROGEN              0.763077  0.000000  0.684436
   OXYGEN                0.231181  0.000000  0.000000
   CARBON DIOXIDE        0.000592  0.000000  0.251122
   CARBON MONOXIDE       0.000000  0.000000  0.000000
   WATER VAPOR           0.005149  0.000000  0.063242
   SOOT                  0.000000  0.000000  0.001199


 Primitive Species Information

   POLYURETHANE
   Gas Species
   Molecular Weight (g/mol)           130.42922
   Ambient Density (kg/m^3)            5.422
   Enthalpy of Formation (J/kg)       -3.03E+06

   NITROGEN
   Gas Species
   Molecular Weight (g/mol)            28.01340
   Ambient Density (kg/m^3)            1.165
   Enthalpy of Formation (J/kg)        0.00E+00

   OXYGEN
   Gas Species
   Molecular Weight (g/mol)            31.99880
   Ambient Density (kg/m^3)            1.330
   Enthalpy of Formation (J/kg)        0.00E+00

   CARBON DIOXIDE
   Gas Species
   Molecular Weight (g/mol)            44.00950
   Ambient Density (kg/m^3)            1.830
   Enthalpy of Formation (J/kg)       -8.94E+06

   CARBON MONOXIDE
   Gas Species
   Molecular Weight (g/mol)            28.01010
   Ambient Density (kg/m^3)            1.164
   Enthalpy of Formation (J/kg)       -3.95E+06

   WATER VAPOR
   Gas Species
   Molecular Weight (g/mol)            18.01528
   Ambient Density (kg/m^3)            0.749
   Enthalpy of Formation (J/kg)       -1.34E+07

   SOOT
   Gas Species
   Molecular Weight (g/mol)            10.91042
   Ambient Density (kg/m^3)            0.454
   Enthalpy of Formation (J/kg)        0.00E+00


 Tracked (Lumped) Species Information

   AIR
   Molecular Weight (g/mol)            28.76564
   Ambient Density (kg/m^3)            1.196
   Initial Mass Fraction               1.000
   Enthalpy of Formation (J/kg)     -7.44E+04

   Sub Species                    Mass Fraction     Mole Fraction
   NITROGEN                       7.630774E-01      7.835682E-01
   OXYGEN                         2.311814E-01      2.078229E-01
   CARBON DIOXIDE                 5.919362E-04      3.869034E-04
   WATER VAPOR                    5.149269E-03      8.222023E-03
 
     Viscosity (kg/m/s) Ambient,  293 K:  1.80E-05
                                  500 K:  2.61E-05
                                 1000 K:  4.13E-05
                                 1500 K:  5.37E-05
   Therm. Cond. (W/m/K) Ambient,  293 K:  2.56E-02
                                  500 K:  3.81E-02
                                 1000 K:  6.68E-02
                                 1500 K:  9.24E-02
        Enthalpy (J/kg) Ambient,  293 K: -7.97E+04
                                  500 K: -1.36E+05
                                 1000 K: -2.72E+05
                                 1500 K: -4.08E+05
    Spec. Heat (J/kg/K) Ambient,  293 K:  1.02E+03
                                  500 K:  1.04E+03
                                 1000 K:  1.16E+03
                                 1500 K:  1.23E+03
   Diff. Coeff. (m^2/s) Ambient,  293 K:  1.99E-05
                                  500 K:  4.96E-05
                                 1000 K:  1.58E-04
                                 1500 K:  3.09E-04

   POLYURETHANE
   Molecular Weight (g/mol)           130.42922
   Ambient Density (kg/m^3)            5.422
   Initial Mass Fraction               0.000
   Enthalpy of Formation (J/kg)     -3.03E+06

   Sub Species                    Mass Fraction     Mole Fraction
   POLYURETHANE                   1.000000E+00      1.000000E+00
 
     Viscosity (kg/m/s) Ambient,  293 K:  3.75E-05
                                  500 K:  5.42E-05
                                 1000 K:  8.52E-05
                                 1500 K:  1.11E-04
   Therm. Cond. (W/m/K) Ambient,  293 K:  1.18E-02
                                  500 K:  1.70E-02
                                 1000 K:  2.68E-02
                                 1500 K:  3.48E-02
        Enthalpy (J/kg) Ambient,  293 K: -3.03E+06
                                  500 K: -5.18E+06
                                 1000 K: -1.04E+07
                                 1500 K: -1.55E+07
    Spec. Heat (J/kg/K) Ambient,  293 K:  2.23E+02
                                  500 K:  2.23E+02
                                 1000 K:  2.23E+02
                                 1500 K:  2.23E+02
   Diff. Coeff. (m^2/s) Ambient,  293 K:  1.55E-05
                                  500 K:  3.85E-05
                                 1000 K:  1.22E-04
                                 1500 K:  2.39E-04

   PRODUCTS
   Molecular Weight (g/mol)            29.62178
   Ambient Density (kg/m^3)            1.231
   Initial Mass Fraction               0.000
   Enthalpy of Formation (J/kg)     -3.09E+06

   Sub Species                    Mass Fraction     Mole Fraction
   NITROGEN                       6.844363E-01      7.237328E-01
   CARBON DIOXIDE                 2.511223E-01      1.690246E-01
   CARBON MONOXIDE                0.000000E+00      0.000000E+00
   WATER VAPOR                    6.324206E-02      1.039863E-01
   SOOT                           1.199367E-03      3.256280E-03
 
     Viscosity (kg/m/s) Ambient,  293 K:  1.63E-05
                                  500 K:  2.41E-05
                                 1000 K:  3.91E-05
                                 1500 K:  5.14E-05
   Therm. Cond. (W/m/K) Ambient,  293 K:  2.31E-02
                                  500 K:  3.60E-02
                                 1000 K:  6.63E-02
                                 1500 K:  9.41E-02
        Enthalpy (J/kg) Ambient,  293 K: -3.10E+06
                                  500 K: -5.29E+06
                                 1000 K: -1.06E+07
                                 1500 K: -1.59E+07
    Spec. Heat (J/kg/K) Ambient,  293 K:  1.04E+03
                                  500 K:  1.10E+03
                                 1000 K:  1.26E+03
                                 1500 K:  1.35E+03
   Diff. Coeff. (m^2/s) Ambient,  293 K:  1.92E-05
                                  500 K:  4.85E-05
                                 1000 K:  1.56E-04
                                 1500 K:  3.06E-04


 Gas Phase Reaction Information

   C_6.3 H_7.1 N O_2.1, NFPA Handbook, Babrauskas

   Fuel                                           Heat of Combustion (kJ/kg)
   POLYURETHANE                                                   22222.1389

   Stoichiometry

   Primitive Species
   Species ID                                                 Stoich. Coeff.
   POLYURETHANE                                                    -1.000000
   NITROGEN                                                         0.500000
   OXYGEN                                                          -6.914420
   CARBON DIOXIDE                                                   6.192409
   WATER VAPOR                                                      3.544023
   SOOT                                                             0.119546

   Tracked (Lumped) Species
   Species ID                                                 Stoich. Coeff.
   AIR                                                            -33.270741
   POLYURETHANE                                                    -1.000000
   PRODUCTS                                                        36.712298

   Reaction Kinetics

   Arrhenius Parameters
   Pre-exponential:    Infinite
   Activation Energy:  N/A

   ODE Solver:  EXPLICIT EULER
   Extinction Model:  EXTINCTION 2
   Ignition Temperature (K):            0.0
   Critical Flame Temperature (K):   1600.2


 Material Information


 Surface Conditions

   0 INERT (DEFAULT)

   1 FIRE
     HRR Per Unit Area (kW/m2)     250000.0
     POLYURETHANE Mass Flux (kg/s/m2)   1.13E+01

   2 OPEN
     Passive Vent to Atmosphere

   3 MIRROR
     Symmetry Plane

   4 INTERPOLATED

   5 PERIODIC

   6 HVAC

   7 MASSLESS TRACER

   8 DROPLET

   9 VEGETATION

  10 EVACUATION_OUTFLOW
     Normal Velocity (m/s)         0.000

  11 MASSLESS TARGET

  12 PERIODIC WIND


 Slice File Information, Mesh     1

   Sampling Interval (s)             0.040

   1 Nodes:   0  52   0  32  13  13, Quantity: TEMPERATURE
   2 Nodes:  26  26   0  32   0  31, Quantity: U-VELOCITY
   3 Nodes:  26  26   0  32   0  31, Quantity: U-VELOCITY
   4 Nodes:  26  26   0  32   0  31, Quantity: V-VELOCITY
   5 Nodes:  26  26   0  32   0  31, Quantity: W-VELOCITY
   6 Nodes:   0  52  16  16   0  31, Quantity: V-VELOCITY
   7 Nodes:   0  52  16  16   0  31, Quantity: U-VELOCITY
   8 Nodes:   0  52  16  16   0  31, Quantity: V-VELOCITY
   9 Nodes:   0  52  16  16   0  31, Quantity: W-VELOCITY
  10 Nodes:   0  52   0  32  22  22, Quantity: W-VELOCITY
  11 Nodes:   0  52   0  32  22  22, Quantity: U-VELOCITY
  12 Nodes:   0  52   0  32  22  22, Quantity: V-VELOCITY
  13 Nodes:   0  52   0  32  22  22, Quantity: W-VELOCITY


 Slice File Information, Mesh     2

   Sampling Interval (s)             0.040

   1 Nodes:   5   5   0  40   0  60, Quantity: U-VELOCITY
   2 Nodes:   5   5   0  40   0  60, Quantity: U-VELOCITY
   3 Nodes:   5   5   0  40   0  60, Quantity: V-VELOCITY
   4 Nodes:   5   5   0  40   0  60, Quantity: W-VELOCITY
   5 Nodes:   0  20  20  20   0  60, Quantity: V-VELOCITY
   6 Nodes:   0  20  20  20   0  60, Quantity: U-VELOCITY
   7 Nodes:   0  20  20  20   0  60, Quantity: V-VELOCITY
   8 Nodes:   0  20  20  20   0  60, Quantity: W-VELOCITY
   9 Nodes:   0  20   0  40  13  13, Quantity: W-VELOCITY
  10 Nodes:   0  20   0  40  13  13, Quantity: U-VELOCITY
  11 Nodes:   0  20   0  40  13  13, Quantity: V-VELOCITY
  12 Nodes:   0  20   0  40  13  13, Quantity: W-VELOCITY


 Radiation Model Information

   Number of control angles  104
   Time step increment         3
   Angle increment             5
   Theta band N_phi   Solid angle
     1:        4  0.12
     2:       12  0.11
     3:       16  0.13
     4:       20  0.12
     5:       20  0.12
     6:       16  0.13
     7:       12  0.11
     8:        4  0.12
   Using gray gas absorption.
   Mean beam length 10.000 m



 Run Time Diagnostics

       Time Step       1   February 23, 2017  12:04:03
       Step Size:    0.180E+00 s, Total Time:       0.18 s
       Pressure Iterations:      2
       Maximum Velocity Error:  0.50E-01 on Mesh   1 at (  17  27   1)
       Maximum Pressure Error:  0.33E-01 on Mesh   1 at (  16  17   1)
       ---------------------------------------------------------------
       Mesh    1
       Max CFL number:  0.69E-02 at (  16,  16,   1)
       Max divergence:  0.73E+00 at (  17,  16,   1)
       Min divergence: -0.29E-04 at (  15,  16,   1)
       Max VN number:   0.44E-03 at (   9,  13,  25)
       Total Heat Release Rate:        1050185.167 kW
       Radiation Loss to Boundaries:         0.002 kW
       Mesh    2
       Max CFL number:  0.17E-02 at (  13,  25,  19)
       Max divergence:  0.21E-05 at (   1,  40,  11)
       Min divergence: -0.23E-05 at (   7,  12,   1)
       Max VN number:   0.12E-02 at (   5,  15,  11)

       Time Step       2   February 23, 2017  12:04:03
       Step Size:    0.180E+00 s, Total Time:       0.36 s
       Pressure Iterations:      2
       Maximum Velocity Error:  0.17E+00 on Mesh   1 at (  17   7   1)
       Maximum Pressure Error:  0.20E+01 on Mesh   1 at (  16  17   1)
       ---------------------------------------------------------------
       Mesh    1
       Max CFL number:  0.16E+00 at (  16,  16,   1)
       Max divergence:  0.26E+01 at (  17,  16,   1)
       Min divergence: -0.92E-05 at (  16,  17,   3)
       Max VN number:   0.25E-01 at (  15,  16,   1)
       Total Heat Release Rate:        3968650.911 kW
       Radiation Loss to Boundaries:    -18443.039 kW
       Mesh    2
       Max CFL number:  0.20E-02 at (   1,  24,   6)
       Max divergence:  0.27E-05 at (   5,   1,   1)
       Min divergence: -0.27E-05 at (   6,  29,   1)
       Max VN number:   0.12E-02 at (   5,  15,  11)

       Time Step       3   February 23, 2017  12:04:03
       Step Size:    0.180E+00 s, Total Time:       0.54 s
       Pressure Iterations:      3
       Maximum Velocity Error:  0.20E+00 on Mesh   1 at (  17   7   1)
       Maximum Pressure Error:  0.46E+01 on Mesh   1 at (  16  16   1)
       ---------------------------------------------------------------
       Mesh    1
       Max CFL number:  0.57E+00 at (  17,  16,   1)
       Max divergence:  0.29E+01 at (  16,  17,   1)
       Min divergence: -0.52E-04 at (  17,  18,   3)
       Max VN number:   0.87E-01 at (  15,  16,   1)
       Total Heat Release Rate:        6804417.402 kW
       Radiation Loss to Boundaries:   -362299.835 kW
       Mesh    2
       Max CFL number:  0.34E-02 at (   5,   1,   1)
       Max divergence:  0.68E-05 at (   5,   1,   1)
       Min divergence: -0.38E-05 at (   6,  29,   1)
       Max VN number:   0.16E-02 at (   6,   1,   5)

       Time Step       4   February 23, 2017  12:04:04
       Step Size:    0.180E+00 s, Total Time:       0.72 s
       Pressure Iterations:      4
       Maximum Velocity Error:  0.11E+00 on Mesh   2 at (   6   1   1)
       Maximum Pressure Error:  0.35E+01 on Mesh   1 at (  16  17   1)
       ---------------------------------------------------------------
       Mesh    1
       Max CFL number:  0.68E+00 at (  16,  17,   1)
       Max divergence:  0.13E+01 at (  15,  16,   1)
       Min divergence: -0.46E+00 at (  16,  17,   1)
       Max VN number:   0.11E+00 at (  15,  16,   1)
       Total Heat Release Rate:        7084520.798 kW
       Radiation Loss to Boundaries:  -3212225.449 kW
       Mesh    2
       Max CFL number:  0.85E-02 at (   5,   1,   1)
       Max divergence:  0.15E-04 at (   5,   1,   1)
       Min divergence: -0.85E-05 at (   6,  29,   1)
       Max VN number:   0.30E-02 at (   5,   8,   1)

       Time Step       5   February 23, 2017  12:04:04
       Step Size:    0.180E+00 s, Total Time:       0.90 s
       Pressure Iterations:      2
       Maximum Velocity Error:  0.15E+00 on Mesh   2 at (   6   1   1)
       Maximum Pressure Error:  0.21E+01 on Mesh   1 at (  15  16   1)
       ---------------------------------------------------------------
       Mesh    1
       Max CFL number:  0.28E+00 at (  17,  15,   1)
       Max divergence:  0.80E+00 at (  15,  17,   1)
       Min divergence: -0.66E-05 at (  27,  18,  20)
       Max VN number:   0.58E-01 at (  15,  17,   1)
       Total Heat Release Rate:        6465375.194 kW
       Radiation Loss to Boundaries:  -1738316.653 kW
       Mesh    2
       Max CFL number:  0.28E-01 at (   5,   9,   6)
       Max divergence:  0.26E-04 at (   5,   5,   1)
       Min divergence: -0.20E-04 at (   6,  15,   1)
       Max VN number:   0.44E-02 at (   5,  40,   1)

       Time Step       6   February 23, 2017  12:04:05
       Step Size:    0.180E+00 s, Total Time:       1.08 s
       Pressure Iterations:      2
       Maximum Velocity Error:  0.18E+00 on Mesh   2 at (   6   1   1)
       Maximum Pressure Error:  0.38E+01 on Mesh   1 at (  17  15   1)
       ---------------------------------------------------------------
       Mesh    1
       Max CFL number:  0.25E+00 at (  17,  17,   1)
       Max divergence:  0.72E+00 at (  18,  16,   1)
       Min divergence: -0.27E+00 at (  16,  16,   1)
       Max VN number:   0.31E-01 at (  17,  16,   1)
       Total Heat Release Rate:        6908635.524 kW
       Radiation Loss to Boundaries:  -3734459.337 kW
       Mesh    2
       Max CFL number:  0.60E-01 at (   5,   9,   6)
       Max divergence:  0.37E-04 at (   5,  10,   1)
       Min divergence: -0.31E-04 at (   6,  26,   1)
       Max VN number:   0.12E-01 at (   5,   9,   6)

       Time Step       7   February 23, 2017  12:04:05
       Step Size:    0.180E+00 s, Total Time:       1.26 s
       Pressure Iterations:      1
       Maximum Velocity Error:  0.21E+00 on Mesh   2 at (   6   2   2)
       Maximum Pressure Error:  0.29E+01 on Mesh   1 at (  16  16   1)
       ---------------------------------------------------------------
       Mesh    1
       Max CFL number:  0.17E+00 at (  18,  17,   1)
       Max divergence:  0.47E+00 at (  17,  16,   1)
       Min divergence: -0.22E-04 at (  27,  18,  20)
       Max VN number:   0.45E-01 at (  17,  17,   1)
       Total Heat Release Rate:        6225688.296 kW
       Radiation Loss to Boundaries:  -2958751.330 kW
       Mesh    2
       Max CFL number:  0.11E+00 at (   5,   9,   6)
       Max divergence:  0.51E-04 at (   5,  16,   1)
       Min divergence: -0.44E-04 at (   6,  26,   1)
       Max VN number:   0.25E-01 at (   5,   9,   6)

       Time Step       8   February 23, 2017  12:04:06
       Step Size:    0.180E+00 s, Total Time:       1.44 s
       Pressure Iterations:      3
       Maximum Velocity Error:  0.24E+00 on Mesh   2 at (   6   1   1)
       Maximum Pressure Error:  0.20E+01 on Mesh   1 at (  18  16   1)
       ---------------------------------------------------------------
       Mesh    1
       Max CFL number:  0.18E+00 at (  17,  16,   1)
       Max divergence:  0.63E+00 at (  18,  16,   1)
       Min divergence: -0.31E-04 at (  27,  18,  20)
       Max VN number:   0.30E-01 at (  17,  17,   1)
       Total Heat Release Rate:        6188094.106 kW
       Radiation Loss to Boundaries:  -1860732.869 kW
       Mesh    2
       Max CFL number:  0.16E+00 at (   5,   9,   6)
       Max divergence:  0.66E-04 at (   5,  19,   1)
       Min divergence: -0.57E-04 at (   6,  23,   1)
       Max VN number:   0.42E-01 at (   5,   9,   6)

       Time Step       9   February 23, 2017  12:04:06
       Step Size:    0.180E+00 s, Total Time:       1.62 s
       Pressure Iterations:      3
       Maximum Velocity Error:  0.26E+00 on Mesh   2 at (   1   1  31)
       Maximum Pressure Error:  0.35E+01 on Mesh   1 at (  18  16   1)
       ---------------------------------------------------------------
       Mesh    1
       Max CFL number:  0.19E+00 at (  17,  16,   1)
       Max divergence:  0.50E+00 at (  17,  16,   1)
       Min divergence: -0.65E-01 at (  18,  16,   1)
       Max VN number:   0.44E-01 at (  17,  17,   1)
       Total Heat Release Rate:        6486010.327 kW
       Radiation Loss to Boundaries:  -4221391.674 kW
       Mesh    2
       Max CFL number:  0.24E+00 at (   5,  33,   6)
       Max divergence:  0.91E-04 at (   5,  32,   5)
       Min divergence: -0.77E-04 at (   6,  10,   5)
       Max VN number:   0.66E-01 at (   5,   9,   6)

       Time Step      10   February 23, 2017  12:04:06
       Step Size:    0.180E+00 s, Total Time:       1.80 s
       Pressure Iterations:      3
       Maximum Velocity Error:  0.28E+00 on Mesh   2 at (   5   1  31)
       Maximum Pressure Error:  0.28E+01 on Mesh   1 at (  15  17   1)
       ---------------------------------------------------------------
       Mesh    1
       Max CFL number:  0.16E+00 at (  17,  16,   1)
       Max divergence:  0.49E+00 at (  17,  16,   1)
       Min divergence: -0.59E-04 at (  27,  17,  20)
       Max VN number:   0.33E-01 at (  17,  17,   1)
       Total Heat Release Rate:        6051773.837 kW
       Radiation Loss to Boundaries:  -2178230.827 kW
       Mesh    2
       Max CFL number:  0.35E+00 at (   5,  33,   6)
       Max divergence:  0.13E-03 at (   5,  32,   5)
       Min divergence: -0.11E-03 at (   6,  32,   5)
       Max VN number:   0.10E+00 at (   5,  33,   6)

       Time Step      20   February 23, 2017  12:04:11
       Step Size:    0.142E+00 s, Total Time:       3.51 s
       Pressure Iterations:      1
       Maximum Velocity Error:  0.14E+00 on Mesh   2 at (   6  34   9)
       Maximum Pressure Error:  0.45E+01 on Mesh   1 at (  18  18   1)
       ---------------------------------------------------------------
       Mesh    1
       Max CFL number:  0.29E+00 at (  15,  16,   1)
       Max divergence:  0.97E+00 at (  15,  15,   1)
       Min divergence: -0.44E+00 at (  16,  15,   2)
       Max VN number:   0.18E+00 at (  18,  16,   1)
       Total Heat Release Rate:        9496791.140 kW
       Radiation Loss to Boundaries:  -2457777.424 kW
       Mesh    2
       Max CFL number:  0.91E+00 at (   5,  33,   7)
       Max divergence:  0.72E-03 at (   5,  31,   6)
       Min divergence: -0.64E-03 at (   5,  31,  20)
       Max VN number:   0.37E+00 at (   5,  33,  20)

       Time Step      30   February 23, 2017  12:04:16
       Step Size:    0.896E-01 s, Total Time:       4.65 s
       Pressure Iterations:      4
       Maximum Velocity Error:  0.19E+00 on Mesh   2 at (   6  40   1)
       Maximum Pressure Error:  0.38E+01 on Mesh   1 at (  18  18   1)
       ---------------------------------------------------------------
       Mesh    1
       Max CFL number:  0.25E+00 at (  15,  15,   1)
       Max divergence:  0.12E+01 at (  15,  15,   1)
       Min divergence: -0.64E+00 at (  16,  16,   2)
       Max VN number:   0.19E+00 at (  15,  17,   1)
       Total Heat Release Rate:       15967424.855 kW
       Radiation Loss to Boundaries:  -4332671.407 kW
       Mesh    2
       Max CFL number:  0.96E+00 at (   6,  33,   7)
       Max divergence:  0.16E-02 at (   5,  25,   5)
       Min divergence: -0.15E-02 at (   5,  31,  20)
       Max VN number:   0.36E+00 at (   5,  33,  10)

       Time Step      40   February 23, 2017  12:04:22
       Step Size:    0.535E-01 s, Total Time:       5.32 s
       Pressure Iterations:      6
       Maximum Velocity Error:  0.17E+00 on Mesh   2 at (   6  38   8)
       Maximum Pressure Error:  0.49E+01 on Mesh   1 at (  16  19   1)
       ---------------------------------------------------------------
       Mesh    1
       Max CFL number:  0.18E+00 at (  15,  18,   2)
       Max divergence:  0.15E+01 at (  17,  14,   1)
       Min divergence: -0.19E+00 at (  16,  15,   2)
       Max VN number:   0.12E+00 at (  15,  16,   1)
       Total Heat Release Rate:       20919584.063 kW
       Radiation Loss to Boundaries:  -2759405.477 kW
       Mesh    2
       Max CFL number:  0.93E+00 at (   5,  32,  20)
       Max divergence:  0.36E-02 at (   5,  29,   5)
       Min divergence: -0.28E-02 at (   5,  31,  20)
       Max VN number:   0.36E+00 at (   7,  33,  20)

       Time Step      50   February 23, 2017  12:04:27
       Step Size:    0.421E-01 s, Total Time:       5.79 s
       Pressure Iterations:      5
       Maximum Velocity Error:  0.90E-01 on Mesh   2 at (   6  25   1)
       Maximum Pressure Error:  0.43E+01 on Mesh   1 at (  16  14   1)
       ---------------------------------------------------------------
       Mesh    1
       Max CFL number:  0.18E+00 at (  14,  16,   1)
       Max divergence:  0.18E+01 at (  14,  16,   1)
       Min divergence: -0.32E+00 at (  15,  18,   4)
       Max VN number:   0.90E-01 at (  15,  17,   1)
       Total Heat Release Rate:       24691974.095 kW
       Radiation Loss to Boundaries:  -4900427.484 kW
       Mesh    2
       Max CFL number:  0.93E+00 at (   5,  33,  11)
       Max divergence:  0.50E-02 at (   5,  30,   6)
       Min divergence: -0.37E-02 at (   5,  29,  20)
       Max VN number:   0.37E+00 at (   5,  33,   9)

       Time Step      60   February 23, 2017  12:04:32
       Step Size:    0.378E-01 s, Total Time:       6.19 s
       Pressure Iterations:      3
       Maximum Velocity Error:  0.88E-01 on Mesh   1 at (  17   7   1)
       Maximum Pressure Error:  0.28E+01 on Mesh   1 at (  16  19   1)
       ---------------------------------------------------------------
       Mesh    1
       Max CFL number:  0.16E+00 at (  27,  19,  22)
       Max divergence:  0.15E+01 at (  16,  19,   1)
       Min divergence: -0.44E+00 at (  17,  16,   4)
       Max VN number:   0.79E-01 at (  15,  16,   1)
       Total Heat Release Rate:       27251154.808 kW
       Radiation Loss to Boundaries:  -7299190.026 kW
       Mesh    2
       Max CFL number:  0.95E+00 at (  12,  31,  17)
       Max divergence:  0.59E-02 at (   5,  24,   6)
       Min divergence: -0.44E-02 at (   5,  27,  20)
       Max VN number:   0.37E+00 at (   5,  33,  12)

       Time Step      70   February 23, 2017  12:04:37
       Step Size:    0.338E-01 s, Total Time:       6.54 s
       Pressure Iterations:      4
       Maximum Velocity Error:  0.65E-01 on Mesh   2 at (   6  22   1)
       Maximum Pressure Error:  0.21E+01 on Mesh   1 at (  16  19   1)
       ---------------------------------------------------------------
       Mesh    1
       Max CFL number:  0.15E+00 at (  17,  14,   2)
       Max divergence:  0.13E+01 at (  14,  16,   1)
       Min divergence: -0.69E+00 at (  15,  17,   5)
       Max VN number:   0.72E-01 at (  15,  16,   1)
       Total Heat Release Rate:       29272647.024 kW
       Radiation Loss to Boundaries:  -7195528.901 kW
       Mesh    2
       Max CFL number:  0.89E+00 at (  11,  30,  10)
       Max divergence:  0.64E-02 at (   5,  24,   6)
       Min divergence: -0.47E-02 at (   5,  27,  20)
       Max VN number:   0.34E+00 at (   5,  29,   6)

       Time Step      80   February 23, 2017  12:04:42
       Step Size:    0.338E-01 s, Total Time:       6.88 s
       Pressure Iterations:      3
       Maximum Velocity Error:  0.11E+00 on Mesh   2 at (   3   2  31)
       Maximum Pressure Error:  0.19E+01 on Mesh   1 at (  16  17   2)
       ---------------------------------------------------------------
       Mesh    1
       Max CFL number:  0.15E+00 at (  27,  18,  23)
       Max divergence:  0.14E+01 at (  18,  14,   1)
       Min divergence: -0.93E+00 at (  17,  16,   5)
       Max VN number:   0.82E-01 at (  18,  18,   1)
       Total Heat Release Rate:       32154450.293 kW
       Radiation Loss to Boundaries:  -7725668.271 kW
       Mesh    2
       Max CFL number:  0.94E+00 at (  14,  29,   9)
       Max divergence:  0.63E-02 at (   5,  26,   6)
       Min divergence: -0.45E-02 at (   5,  25,  20)
       Max VN number:   0.34E+00 at (   5,  25,   6)

       Time Step      90   February 23, 2017  12:04:47
       Step Size:    0.297E-01 s, Total Time:       7.19 s
       Pressure Iterations:      6
       Maximum Velocity Error:  0.12E+00 on Mesh   2 at (   1   1  31)
       Maximum Pressure Error:  0.36E+01 on Mesh   1 at (  15  15   2)
       ---------------------------------------------------------------
       Mesh    1
       Max CFL number:  0.14E+00 at (  26,  18,  23)
       Max divergence:  0.16E+01 at (  18,  14,   1)
       Min divergence: -0.79E+00 at (  16,  16,   4)
       Max VN number:   0.84E-01 at (  15,  18,   1)
       Total Heat Release Rate:       33866906.447 kW
       Radiation Loss to Boundaries:  -6804067.081 kW
       Mesh    2
       Max CFL number:  0.93E+00 at (   9,  30,   9)
       Max divergence:  0.27E-01 at (  20,  34,   4)
       Min divergence: -0.31E-01 at (  20,  33,   4)
       Max VN number:   0.33E+00 at (   5,  33,  17)

       Time Step     100   February 23, 2017  12:04:52
       Step Size:    0.264E-01 s, Total Time:       7.45 s
       Pressure Iterations:      7
       Maximum Velocity Error:  0.86E-01 on Mesh   2 at (   6  35   2)
       Maximum Pressure Error:  0.36E+01 on Mesh   1 at (  18  14   1)
       ---------------------------------------------------------------
       Mesh    1
       Max CFL number:  0.14E+00 at (  26,  18,  23)
       Max divergence:  0.16E+01 at (  14,  15,   1)
       Min divergence: -0.58E+00 at (  16,  16,   4)
       Max VN number:   0.76E-01 at (  15,  15,   1)
       Total Heat Release Rate:       37990915.328 kW
       Radiation Loss to Boundaries:  -7199564.812 kW
       Mesh    2
       Max CFL number:  0.94E+00 at (   9,  30,   8)
       Max divergence:  0.88E-02 at (   5,  26,   6)
       Min divergence: -0.13E-01 at (  20,  36,   1)
       Max VN number:   0.34E+00 at (   5,  33,  17)

       Time Step     200   February 23, 2017  12:05:47
       Step Size:    0.118E-01 s, Total Time:       9.11 s
       Pressure Iterations:      6
       Maximum Velocity Error:  0.14E+00 on Mesh   2 at (   1   1  31)
       Maximum Pressure Error:  0.24E+01 on Mesh   1 at (  15  14   1)
       ---------------------------------------------------------------
       Mesh    1
       Max CFL number:  0.14E+00 at (  27,  17,  23)
       Max divergence:  0.20E+01 at (  18,  17,   7)
       Min divergence: -0.75E+00 at (  16,  17,   2)
       Max VN number:   0.49E-01 at (  26,  19,  23)
       Total Heat Release Rate:       72392468.210 kW
       Radiation Loss to Boundaries: -11457940.104 kW
       Mesh    2
       Max CFL number:  0.95E+00 at (   7,  32,   8)
       Max divergence:  0.19E-01 at (   5,  26,   6)
       Min divergence: -0.14E-01 at (   5,  13,  20)
       Max VN number:   0.40E+00 at (   5,  30,   6)

       Time Step     300   February 23, 2017  12:06:43
       Step Size:    0.110E-01 s, Total Time:      10.16 s
       Pressure Iterations:      7
       Maximum Velocity Error:  0.16E+00 on Mesh   2 at (   1   1  31)
       Maximum Pressure Error:  0.82E+01 on Mesh   1 at (  19  14   1)
       ---------------------------------------------------------------
       Mesh    1
       Max CFL number:  0.14E+00 at (  27,  17,  23)
       Max divergence:  0.15E+01 at (  16,  17,   3)
       Min divergence: -0.13E+01 at (  17,  16,   5)
       Max VN number:   0.56E-01 at (  29,  19,  21)
       Total Heat Release Rate:       61214419.014 kW
       Radiation Loss to Boundaries:  -1001742.449 kW
       Mesh    2
       Max CFL number:  0.93E+00 at (   9,  30,   9)
       Max divergence:  0.21E-01 at (   5,  20,   6)
       Min divergence: -0.19E-01 at (  20,  39,  15)
       Max VN number:   0.38E+00 at (   5,  33,  10)

       Time Step     400   February 23, 2017  12:07:39
       Step Size:    0.117E-01 s, Total Time:      11.24 s
       Pressure Iterations:     10
       Maximum Velocity Error:  0.89E-01 on Mesh   2 at (   6  21   1)
       Maximum Pressure Error:  0.50E+01 on Mesh   1 at (  15  20   1)
       ---------------------------------------------------------------
       Mesh    1
       Max CFL number:  0.15E+00 at (  40,  17,  22)
       Max divergence:  0.16E+01 at (  18,  16,   6)
       Min divergence: -0.67E+00 at (  18,  18,   3)
       Max VN number:   0.57E-01 at (  42,  17,  27)
       Total Heat Release Rate:       56989177.958 kW
       Radiation Loss to Boundaries:  -5626259.775 kW
       Mesh    2
       Max CFL number:  0.94E+00 at (  13,  28,  12)
       Max divergence:  0.13E-01 at (   5,  18,   6)
       Min divergence: -0.29E-01 at (  20,  40,  15)
       Max VN number:   0.38E+00 at (  20,  40,  14)

       Time Step     500   February 23, 2017  12:08:36
       Step Size:    0.104E-01 s, Total Time:      12.37 s
       Pressure Iterations:     10
       Maximum Velocity Error:  0.56E-01 on Mesh   2 at (   5   2  31)
       Maximum Pressure Error:  0.67E+01 on Mesh   1 at (  14  13   1)
       ---------------------------------------------------------------
       Mesh    1
       Max CFL number:  0.15E+00 at (  27,  17,  23)
       Max divergence:  0.24E+01 at (  16,  17,   4)
       Min divergence: -0.12E+01 at (  17,  17,   2)
       Max VN number:   0.57E-01 at (  28,  15,  21)
       Total Heat Release Rate:       80269806.218 kW
       Radiation Loss to Boundaries:  -9231949.392 kW
       Mesh    2
       Max CFL number:  0.97E+00 at (  19,  26,  19)
       Max divergence:  0.24E-01 at (   5,  25,   6)
       Min divergence: -0.19E-01 at (  20,  40,  15)
       Max VN number:   0.37E+00 at (  20,  21,   1)

       Time Step     600   February 23, 2017  12:09:34
       Step Size:    0.862E-02 s, Total Time:      13.28 s
       Pressure Iterations:      8
       Maximum Velocity Error:  0.13E+00 on Mesh   2 at (   6  40   8)
       Maximum Pressure Error:  0.29E+01 on Mesh   1 at (  20  15   1)
       ---------------------------------------------------------------
       Mesh    1
       Max CFL number:  0.14E+00 at (  26,  17,  21)
       Max divergence:  0.20E+01 at (  16,  17,   6)
       Min divergence: -0.10E+01 at (  16,  16,   4)
       Max VN number:   0.59E-01 at (  26,  15,  21)
       Total Heat Release Rate:       89813270.300 kW
       Radiation Loss to Boundaries: -10055064.488 kW
       Mesh    2
       Max CFL number:  0.99E+00 at (   9,  30,   9)
       Max divergence:  0.52E-01 at (   5,  30,   6)
       Min divergence: -0.36E-01 at (   3,  26,   6)
       Max VN number:   0.34E+00 at (   5,  34,  10)

       Time Step     700   February 23, 2017  12:10:36
       Step Size:    0.781E-02 s, Total Time:      14.03 s
       Pressure Iterations:     10
       Maximum Velocity Error:  0.14E+00 on Mesh   2 at (   6   7   1)
       Maximum Pressure Error:  0.12E+02 on Mesh   2 at (   1  34   2)
       ---------------------------------------------------------------
       Mesh    1
       Max CFL number:  0.14E+00 at (  26,  17,  23)
       Max divergence:  0.19E+01 at (  17,  17,   3)
       Min divergence: -0.11E+01 at (  17,  16,   7)
       Max VN number:   0.57E-01 at (  29,  19,  23)
       Total Heat Release Rate:       97617106.605 kW
       Radiation Loss to Boundaries:  -9159207.973 kW
       Mesh    2
       Max CFL number:  0.88E+00 at (  13,  29,   9)
       Max divergence:  0.15E+01 at (   5,  17,   6)
       Min divergence: -0.21E+01 at (  20,  26,  11)
       Max VN number:   0.41E+00 at (  20,  24,   1)

       Time Step     800   February 23, 2017  12:11:35
       Step Size:    0.692E-02 s, Total Time:      14.75 s
       Pressure Iterations:     10
       Maximum Velocity Error:  0.60E-01 on Mesh   1 at (  17  27   1)
       Maximum Pressure Error:  0.54E+02 on Mesh   2 at (  20  16  24)
       ---------------------------------------------------------------
       Mesh    1
       Max CFL number:  0.13E+00 at (  26,  15,  21)
       Max divergence:  0.21E+01 at (  18,  16,   5)
       Min divergence: -0.22E+01 at (  17,  17,   5)
       Max VN number:   0.54E-01 at (  26,  19,  21)
       Total Heat Release Rate:      101071682.465 kW
       Radiation Loss to Boundaries: -10374256.069 kW
       Mesh    2
       Max CFL number:  0.90E+00 at (  15,  32,  12)
       Max divergence:  0.40E+01 at (   5,  32,  14)
       Min divergence: -0.39E+01 at (   7,  31,  14)
       Max VN number:   0.35E+00 at (   5,  34,  10)

       Time Step     900   February 23, 2017  12:12:38
       Step Size:    0.700E-02 s, Total Time:      15.43 s
       Pressure Iterations:     10
       Maximum Velocity Error:  0.92E-01 on Mesh   2 at (   6   1   1)
       Maximum Pressure Error:  0.17E+02 on Mesh   2 at (  20  15  21)
       ---------------------------------------------------------------
       Mesh    1
       Max CFL number:  0.15E+00 at (  26,  15,  22)
       Max divergence:  0.19E+01 at (  18,  13,   1)
       Min divergence: -0.17E+01 at (  18,  17,   4)
       Max VN number:   0.59E-01 at (  26,  19,  23)
       Total Heat Release Rate:      100408017.173 kW
       Radiation Loss to Boundaries:  -9958840.507 kW
       Mesh    2
       Max CFL number:  0.87E+00 at (  10,  15,  15)
       Max divergence:  0.38E+01 at (  20,  25,   1)
       Min divergence: -0.37E+01 at (  20,  15,  16)
       Max VN number:   0.41E+00 at (   6,  32,  21)

       Time Step    1000   February 23, 2017  12:13:37
       Step Size:    0.612E-02 s, Total Time:      16.09 s
       Pressure Iterations:      5
       Maximum Velocity Error:  0.21E+00 on Mesh   2 at (   6  35  10)
       Maximum Pressure Error:  0.57E+02 on Mesh   2 at (  20  33  18)
       ---------------------------------------------------------------
       Mesh    1
       Max CFL number:  0.14E+00 at (  27,  15,  23)
       Max divergence:  0.27E+01 at (  16,  17,   8)
       Min divergence: -0.44E+01 at (  16,  16,   3)
       Max VN number:   0.60E-01 at (  27,  15,  23)
       Total Heat Release Rate:      102049802.038 kW
       Radiation Loss to Boundaries:  -8763133.782 kW
       Mesh    2
       Max CFL number:  0.87E+00 at (  11,  33,  10)
       Max divergence:  0.25E+01 at (  10,  30,   7)
       Min divergence: -0.25E+01 at (  20,  11,  10)
       Max VN number:   0.37E+00 at (   5,  34,  10)

       Time Step    1100   February 23, 2017  12:14:41
       Step Size:    0.368E-02 s, Total Time:      16.63 s
       Pressure Iterations:     10
       Maximum Velocity Error:  0.10E+00 on Mesh   2 at (   6   5   5)
       Maximum Pressure Error:  0.14E+03 on Mesh   2 at (  20  26   1)
       ---------------------------------------------------------------
       Mesh    1
       Max CFL number:  0.85E-01 at (  26,  16,  23)
       Max divergence:  0.25E+01 at (  18,  13,   1)
       Min divergence: -0.17E+01 at (  16,  16,   9)
       Max VN number:   0.44E-01 at (  28,  16,  22)
       Total Heat Release Rate:      101161633.376 kW
       Radiation Loss to Boundaries:  -6915308.264 kW
       Mesh    2
       Max CFL number:  0.58E+00 at (  20,  26,   1)
       Max divergence:  0.17E+02 at (  20,  27,   1)
       Min divergence: -0.15E+02 at (  20,  26,   1)
       Max VN number:   0.44E+00 at (  20,  27,   1)

       Time Step    1200   February 23, 2017  12:15:36
       Step Size:    0.563E-02 s, Total Time:      17.15 s
       Pressure Iterations:      5
       Maximum Velocity Error:  0.64E+00 on Mesh   2 at (   6  29   1)
       Maximum Pressure Error:  0.11E+03 on Mesh   2 at (  20  12  27)
       ---------------------------------------------------------------
       Mesh    1
       Max CFL number:  0.13E+00 at (  26,  16,  23)
       Max divergence:  0.19E+01 at (  15,  18,   1)
       Min divergence: -0.19E+01 at (  19,  16,   7)
       Max VN number:   0.58E-01 at (  27,  16,  23)
       Total Heat Release Rate:      106895042.270 kW
       Radiation Loss to Boundaries: -10446532.895 kW
       Mesh    2
       Max CFL number:  0.79E+00 at (  13,  33,  19)
       Max divergence:  0.46E+01 at (  20,  35,  12)
       Min divergence: -0.51E+01 at (  20,  13,  10)
       Max VN number:   0.39E+00 at (  20,  27,  20)

       Time Step    1300   February 23, 2017  12:16:33
       Step Size:    0.505E-02 s, Total Time:      17.66 s
       Pressure Iterations:      4
       Maximum Velocity Error:  0.38E+00 on Mesh   2 at (   6  21   1)
       Maximum Pressure Error:  0.41E+03 on Mesh   2 at (  20  24  22)
       ---------------------------------------------------------------
       Mesh    1
       Max CFL number:  0.13E+00 at (  27,  15,  23)
       Max divergence:  0.22E+01 at (  16,  18,   9)
       Min divergence: -0.29E+01 at (  16,  17,  10)
       Max VN number:   0.58E-01 at (  26,  17,  24)
       Total Heat Release Rate:      117288109.487 kW
       Radiation Loss to Boundaries:  -7303153.704 kW
       Mesh    2
       Max CFL number:  0.83E+00 at (  20,  24,  22)
       Max divergence:  0.89E+01 at (  20,  23,  22)
       Min divergence: -0.93E+01 at (  20,  19,  21)
       Max VN number:   0.50E+00 at (  20,  24,  22)

       Time Step    1400   February 23, 2017  12:17:38
       Step Size:    0.483E-02 s, Total Time:      18.17 s
       Pressure Iterations:      7
       Maximum Velocity Error:  0.39E+00 on Mesh   2 at (   6   1  18)
       Maximum Pressure Error:  0.81E+02 on Mesh   2 at (   4   1  19)
       ---------------------------------------------------------------
       Mesh    1
       Max CFL number:  0.12E+00 at (  27,  15,  23)
       Max divergence:  0.21E+01 at (  14,  16,   1)
       Min divergence: -0.21E+01 at (  16,  18,  12)
       Max VN number:   0.59E-01 at (  26,  14,  21)
       Total Heat Release Rate:      122336384.990 kW
       Radiation Loss to Boundaries: -10709525.638 kW
       Mesh    2
       Max CFL number:  0.89E+00 at (   6,  33,  18)
       Max divergence:  0.37E+01 at (  20,  35,  10)
       Min divergence: -0.41E+01 at (  20,  17,   7)
       Max VN number:   0.37E+00 at (   9,  22,   4)

       Time Step    1500   February 23, 2017  12:18:38
       Step Size:    0.458E-02 s, Total Time:      18.66 s
       Pressure Iterations:     10
       Maximum Velocity Error:  0.20E+00 on Mesh   2 at (   6  10  26)
       Maximum Pressure Error:  0.29E+02 on Mesh   2 at (  19   1  23)
       ---------------------------------------------------------------
       Mesh    1
       Max CFL number:  0.11E+00 at (  26,  18,  23)
       Max divergence:  0.24E+01 at (  14,  16,   1)
       Min divergence: -0.43E+01 at (  19,  17,  12)
       Max VN number:   0.54E-01 at (  26,  14,  21)
       Total Heat Release Rate:      131848593.098 kW
       Radiation Loss to Boundaries: -10987480.271 kW
       Mesh    2
       Max CFL number:  0.99E+00 at (   6,  33,  20)
       Max divergence:  0.30E+01 at (  20,  25,  22)
       Min divergence: -0.22E+01 at (  12,  22,   8)
       Max VN number:   0.39E+00 at (   6,  34,  20)

       Time Step    1600   February 23, 2017  12:19:38
       Step Size:    0.346E-02 s, Total Time:      19.10 s
       Pressure Iterations:     10
       Maximum Velocity Error:  0.89E-01 on Mesh   1 at (  12  17  26)
       Maximum Pressure Error:  0.31E+02 on Mesh   2 at (  20  19   1)
       ---------------------------------------------------------------
       Mesh    1
       Max CFL number:  0.96E-01 at (  27,  15,  23)
       Max divergence:  0.23E+01 at (  14,  17,   1)
       Min divergence: -0.12E+01 at (  17,  17,   6)
       Max VN number:   0.41E-01 at (  26,  14,  21)
       Total Heat Release Rate:      131644985.788 kW
       Radiation Loss to Boundaries:  -8706999.336 kW
       Mesh    2
       Max CFL number:  0.87E+00 at (   6,  33,  20)
       Max divergence:  0.27E+01 at (  20,  35,  15)
       Min divergence: -0.38E+01 at (  20,  19,   1)
       Max VN number:   0.43E+00 at (   6,  33,  20)

       Time Step    1700   February 23, 2017  12:20:36
       Step Size:    0.323E-02 s, Total Time:      19.54 s
       Pressure Iterations:     10
       Maximum Velocity Error:  0.39E+00 on Mesh   2 at (   3  35  31)
       Maximum Pressure Error:  0.84E+02 on Mesh   2 at (   3  31  30)
       ---------------------------------------------------------------
       Mesh    1
       Max CFL number:  0.89E-01 at (  27,  19,  23)
       Max divergence:  0.23E+01 at (  14,  17,   1)
       Min divergence: -0.45E+01 at (  20,  17,  16)
       Max VN number:   0.36E-01 at (  26,  20,  21)
       Total Heat Release Rate:      126950329.880 kW
       Radiation Loss to Boundaries: -12564670.939 kW
       Mesh    2
       Max CFL number:  0.58E+00 at (   6,  31,  20)
       Max divergence:  0.41E+01 at (   6,  12,   5)
       Min divergence: -0.59E+01 at (   7,  33,  20)
       Max VN number:   0.35E+00 at (   6,  33,  20)

       Time Step    1800   February 23, 2017  12:21:35
       Step Size:    0.415E-02 s, Total Time:      19.96 s
       Pressure Iterations:     10
       Maximum Velocity Error:  0.38E+00 on Mesh   2 at (   6   1  16)
       Maximum Pressure Error:  0.28E+02 on Mesh   2 at (   6   1  18)
       ---------------------------------------------------------------
       Mesh    1
       Max CFL number:  0.11E+00 at (  27,  15,  23)
       Max divergence:  0.23E+01 at (  14,  17,   1)
       Min divergence: -0.11E+01 at (  17,  17,   4)
       Max VN number:   0.50E-01 at (  26,  20,  21)
       Total Heat Release Rate:      131913134.482 kW
       Radiation Loss to Boundaries: -12564185.331 kW
       Mesh    2
       Max CFL number:  0.85E+00 at (   6,  32,  20)
       Max divergence:  0.43E+01 at (   6,  15,   4)
       Min divergence: -0.36E+01 at (   4,  16,   8)
       Max VN number:   0.35E+00 at (   5,  33,  21)

       Time Step    1900   February 23, 2017  12:22:36
       Step Size:    0.400E-02 s, Total Time:      20.28 s
       Pressure Iterations:      6
       Maximum Velocity Error:  0.71E+00 on Mesh   2 at (   6   1  16)
       Maximum Pressure Error:  0.13E+03 on Mesh   2 at (   5   1  17)
       ---------------------------------------------------------------
       Mesh    1
       Max CFL number:  0.11E+00 at (  27,  19,  23)
       Max divergence:  0.29E+01 at (  18,  17,  23)
       Min divergence: -0.27E+01 at (  18,  17,  21)
       Max VN number:   0.46E-01 at (  26,  20,  21)
       Total Heat Release Rate:      134703360.463 kW
       Radiation Loss to Boundaries:  -9422942.370 kW
       Mesh    2
       Max CFL number:  0.89E+00 at (   6,  30,   6)
       Max divergence:  0.34E+01 at (   6,  24,   4)
       Min divergence: -0.37E+01 at (   6,  28,   5)
       Max VN number:   0.34E+00 at (   8,  33,  20)

       Time Step    2000   February 23, 2017  12:23:42
       Step Size:    0.477E-02 s, Total Time:      20.73 s
       Pressure Iterations:     10
       Maximum Velocity Error:  0.31E+00 on Mesh   1 at (  15  17  26)
       Maximum Pressure Error:  0.26E+02 on Mesh   2 at (  20  28  15)
       ---------------------------------------------------------------
       Mesh    1
       Max CFL number:  0.14E+00 at (  26,  18,  23)
       Max divergence:  0.19E+01 at (  14,  19,   1)
       Min divergence: -0.13E+01 at (  12,  16,  24)
       Max VN number:   0.49E-01 at (  26,  19,  24)
       Total Heat Release Rate:      122239560.118 kW
       Radiation Loss to Boundaries:  -7431933.842 kW
       Mesh    2
       Max CFL number:  0.90E+00 at (  17,  29,  19)
       Max divergence:  0.45E+01 at (  20,  27,  23)
       Min divergence: -0.57E+01 at (  20,  27,  17)
       Max VN number:   0.33E+00 at (   5,  34,  19)

       Time Step    2100   February 23, 2017  12:24:44
       Step Size:    0.489E-02 s, Total Time:      21.22 s
       Pressure Iterations:     10
       Maximum Velocity Error:  0.22E+00 on Mesh   2 at (   6   1  14)
       Maximum Pressure Error:  0.15E+03 on Mesh   2 at (  20  16  15)
       ---------------------------------------------------------------
       Mesh    1
       Max CFL number:  0.14E+00 at (  27,  16,  23)
       Max divergence:  0.18E+01 at (  14,  17,   2)
       Min divergence: -0.14E+01 at (  15,  15,  24)
       Max VN number:   0.51E-01 at (  26,  19,  24)
       Total Heat Release Rate:      110113474.521 kW
       Radiation Loss to Boundaries:  -7976758.383 kW
       Mesh    2
       Max CFL number:  0.85E+00 at (  12,  17,  15)
       Max divergence:  0.66E+01 at (  20,  20,  25)
       Min divergence: -0.12E+02 at (  20,  16,  15)
       Max VN number:   0.28E+00 at (   5,  13,  21)

       Time Step    2200   February 23, 2017  12:25:42
       Step Size:    0.413E-02 s, Total Time:      21.73 s
       Pressure Iterations:      5
       Maximum Velocity Error:  0.63E+00 on Mesh   2 at (   1  16  31)
       Maximum Pressure Error:  0.32E+03 on Mesh   2 at (   6  23  21)
       ---------------------------------------------------------------
       Mesh    1
       Max CFL number:  0.12E+00 at (  27,  19,  23)
       Max divergence:  0.20E+01 at (  14,  17,   2)
       Min divergence: -0.14E+01 at (  17,  17,  25)
       Max VN number:   0.51E-01 at (  27,  18,  22)
       Total Heat Release Rate:      122313437.893 kW
       Radiation Loss to Boundaries: -16073906.916 kW
       Mesh    2
       Max CFL number:  0.93E+00 at (   6,  33,  20)
       Max divergence:  0.13E+02 at (   7,  33,  20)
       Min divergence: -0.14E+02 at (  20,  27,  20)
       Max VN number:   0.31E+00 at (  20,  17,  23)

       Time Step    2300   February 23, 2017  12:26:40
       Step Size:    0.483E-02 s, Total Time:      22.21 s
       Pressure Iterations:     10
       Maximum Velocity Error:  0.30E+00 on Mesh   2 at (   6   1  12)
       Maximum Pressure Error:  0.26E+03 on Mesh   2 at (  20  24  18)
       ---------------------------------------------------------------
       Mesh    1
       Max CFL number:  0.14E+00 at (  26,  17,  23)
       Max divergence:  0.20E+01 at (  17,  19,   1)
       Min divergence: -0.15E+01 at (  25,  16,  24)
       Max VN number:   0.55E-01 at (  27,  18,  23)
       Total Heat Release Rate:      109998593.409 kW
       Radiation Loss to Boundaries:  -9595736.955 kW
       Mesh    2
       Max CFL number:  0.83E+00 at (   6,  33,  19)
       Max divergence:  0.16E+02 at (  20,  20,  20)
       Min divergence: -0.15E+02 at (  20,  28,  19)
       Max VN number:   0.55E+00 at (  20,  20,  20)

       Time Step    2400   February 23, 2017  12:27:43
       Step Size:    0.562E-02 s, Total Time:      22.74 s
       Pressure Iterations:     10
       Maximum Velocity Error:  0.25E+00 on Mesh   2 at (   6   1  13)
       Maximum Pressure Error:  0.12E+03 on Mesh   2 at (  20  23   9)
       ---------------------------------------------------------------
       Mesh    1
       Max CFL number:  0.13E+00 at (  27,  17,  23)
       Max divergence:  0.21E+01 at (  17,  14,   1)
       Min divergence: -0.13E+01 at (  25,  17,  24)
       Max VN number:   0.63E-01 at (  26,  16,  24)
       Total Heat Release Rate:       86789627.695 kW
       Radiation Loss to Boundaries:  -7246572.540 kW
       Mesh    2
       Max CFL number:  0.88E+00 at (  12,  17,  16)
       Max divergence:  0.13E+02 at (  20,  27,  20)
       Min divergence: -0.11E+02 at (  20,  25,   8)
       Max VN number:   0.48E+00 at (  20,  27,  20)

       Time Step    2500   February 23, 2017  12:28:45
       Step Size:    0.618E-02 s, Total Time:      23.34 s
       Pressure Iterations:      6
       Maximum Velocity Error:  0.45E+00 on Mesh   2 at (   6   1  13)
       Maximum Pressure Error:  0.81E+02 on Mesh   2 at (  20  25  13)
       ---------------------------------------------------------------
       Mesh    1
       Max CFL number:  0.12E+00 at (  27,  19,  23)
       Max divergence:  0.17E+01 at (  17,  14,   1)
       Min divergence: -0.12E+01 at (  26,  17,  24)
       Max VN number:   0.68E-01 at (  26,  17,  24)
       Total Heat Release Rate:       84938639.299 kW
       Radiation Loss to Boundaries: -10373419.296 kW
       Mesh    2
       Max CFL number:  0.94E+00 at (   6,  33,  19)
       Max divergence:  0.13E+02 at (   7,  33,  20)
       Min divergence: -0.66E+01 at (   6,  33,  20)
       Max VN number:   0.41E+00 at (   6,  34,  20)

       Time Step    2600   February 23, 2017  12:29:42
       Step Size:    0.789E-02 s, Total Time:      24.01 s
       Pressure Iterations:      4
       Maximum Velocity Error:  0.38E+00 on Mesh   2 at (   6   1  14)
       Maximum Pressure Error:  0.28E+03 on Mesh   2 at (  20  36   6)
       ---------------------------------------------------------------
       Mesh    1
       Max CFL number:  0.13E+00 at (  26,  19,  22)
       Max divergence:  0.17E+01 at (  18,  18,   1)
       Min divergence: -0.69E+00 at (  16,  17,   2)
       Max VN number:   0.59E-01 at (  26,  17,  24)
       Total Heat Release Rate:       79418365.576 kW
       Radiation Loss to Boundaries:  -8429918.592 kW
       Mesh    2
       Max CFL number:  0.96E+00 at (   6,  33,  20)
       Max divergence:  0.80E+01 at (  20,  36,   6)
       Min divergence: -0.80E+01 at (  20,  35,   6)
       Max VN number:   0.53E+00 at (  20,  35,   7)

       Time Step    2700   February 23, 2017  12:30:42
       Step Size:    0.809E-02 s, Total Time:      24.74 s
       Pressure Iterations:     10
       Maximum Velocity Error:  0.21E+00 on Mesh   2 at (   6   1  17)
       Maximum Pressure Error:  0.12E+02 on Mesh   2 at (   5  21  30)
       ---------------------------------------------------------------
       Mesh    1
       Max CFL number:  0.13E+00 at (  27,  19,  23)
       Max divergence:  0.16E+01 at (  19,  16,   1)
       Min divergence: -0.65E+00 at (  17,  17,   2)
       Max VN number:   0.56E-01 at (  26,  18,  20)
       Total Heat Release Rate:       77306845.176 kW
       Radiation Loss to Boundaries:  -5175377.439 kW
       Mesh    2
       Max CFL number:  0.82E+00 at (  16,  29,  17)
       Max divergence:  0.51E+01 at (  10,  24,   7)
       Min divergence: -0.67E+01 at (  10,  25,   7)
       Max VN number:   0.46E+00 at (   6,  25,   5)

       Time Step    2800   February 23, 2017  12:31:46
       Step Size:    0.649E-02 s, Total Time:      25.43 s
       Pressure Iterations:     10
       Maximum Velocity Error:  0.89E-01 on Mesh   2 at (   6   1  17)
       Maximum Pressure Error:  0.82E+01 on Mesh   2 at (   5  40   1)
       ---------------------------------------------------------------
       Mesh    1
       Max CFL number:  0.95E-01 at (  27,  15,  21)
       Max divergence:  0.18E+01 at (  19,  16,   1)
       Min divergence: -0.73E+00 at (  17,  16,   3)
       Max VN number:   0.47E-01 at (  26,  17,  20)
       Total Heat Release Rate:       76469345.268 kW
       Radiation Loss to Boundaries:  -7049960.154 kW
       Mesh    2
       Max CFL number:  0.84E+00 at (   5,  24,   8)
       Max divergence:  0.41E+01 at (   7,  33,  20)
       Min divergence: -0.29E+01 at (   6,  33,  20)
       Max VN number:   0.28E+00 at (   9,  21,   5)

       Time Step    2900   February 23, 2017  12:32:46
       Step Size:    0.815E-02 s, Total Time:      26.18 s
       Pressure Iterations:      5
       Maximum Velocity Error:  0.50E+00 on Mesh   2 at (   6   1  14)
       Maximum Pressure Error:  0.57E+02 on Mesh   2 at (  20   8  27)
       ---------------------------------------------------------------
       Mesh    1
       Max CFL number:  0.12E+00 at (  27,  17,  23)
       Max divergence:  0.24E+01 at (  12,  15,   1)
       Min divergence: -0.12E+01 at (  14,  18,   1)
       Max VN number:   0.64E-01 at (  26,  17,  24)
       Total Heat Release Rate:       79541677.635 kW
       Radiation Loss to Boundaries:  -7226837.755 kW
       Mesh    2
       Max CFL number:  0.98E+00 at (   5,  33,  19)
       Max divergence:  0.32E+01 at (  11,  33,  18)
       Min divergence: -0.27E+01 at (  10,  22,  20)
       Max VN number:   0.37E+00 at (   6,  29,   5)

       Time Step    3000   February 23, 2017  12:33:42
       Step Size:    0.688E-02 s, Total Time:      26.88 s
       Pressure Iterations:      5
       Maximum Velocity Error:  0.53E+00 on Mesh   2 at (   6   1  14)
       Maximum Pressure Error:  0.67E+02 on Mesh   2 at (  20   1   5)
       ---------------------------------------------------------------
       Mesh    1
       Max CFL number:  0.11E+00 at (  26,  18,  23)
       Max divergence:  0.19E+01 at (  12,  14,   1)
       Min divergence: -0.12E+01 at (  13,  18,   1)
       Max VN number:   0.54E-01 at (  27,  19,  21)
       Total Heat Release Rate:       83421546.543 kW
       Radiation Loss to Boundaries:  -6961456.129 kW
       Mesh    2
       Max CFL number:  0.79E+00 at (  13,  23,   8)
       Max divergence:  0.29E+01 at (  20,  16,   1)
       Min divergence: -0.30E+01 at (  20,  15,   5)
       Max VN number:   0.39E+00 at (  20,  25,   1)

       Time Step    3100   February 23, 2017  12:34:42
       Step Size:    0.624E-02 s, Total Time:      27.57 s
       Pressure Iterations:     10
       Maximum Velocity Error:  0.30E+00 on Mesh   2 at (   5  30  31)
       Maximum Pressure Error:  0.18E+02 on Mesh   2 at (  20  10  22)
       ---------------------------------------------------------------
       Mesh    1
       Max CFL number:  0.11E+00 at (  27,  16,  23)
       Max divergence:  0.19E+01 at (  14,  19,   1)
       Min divergence: -0.27E+01 at (  15,  17,   8)
       Max VN number:   0.49E-01 at (  27,  19,  21)
       Total Heat Release Rate:       94088551.570 kW
       Radiation Loss to Boundaries:  -8502414.090 kW
       Mesh    2
       Max CFL number:  0.80E+00 at (   6,  31,  20)
       Max divergence:  0.34E+01 at (  20,  23,  25)
       Min divergence: -0.40E+01 at (   8,  15,   5)
       Max VN number:   0.38E+00 at (   6,  15,   5)

       Time Step    3200   February 23, 2017  12:35:44
       Step Size:    0.662E-02 s, Total Time:      28.25 s
       Pressure Iterations:     10
       Maximum Velocity Error:  0.16E+00 on Mesh   2 at (   6  24   1)
       Maximum Pressure Error:  0.15E+02 on Mesh   2 at (  20  10  25)
       ---------------------------------------------------------------
       Mesh    1
       Max CFL number:  0.12E+00 at (  26,  17,  23)
       Max divergence:  0.21E+01 at (  14,  18,   8)
       Min divergence: -0.65E+00 at (  13,  16,   5)
       Max VN number:   0.47E-01 at (  30,  17,  22)
       Total Heat Release Rate:       99921088.317 kW
       Radiation Loss to Boundaries:  -8503297.640 kW
       Mesh    2
       Max CFL number:  0.92E+00 at (   8,  15,   6)
       Max divergence:  0.36E+01 at (  20,  25,  23)
       Min divergence: -0.16E+01 at (  20,  10,  25)
       Max VN number:   0.36E+00 at (  20,  24,  22)

       Time Step    3300   February 23, 2017  12:36:44
       Step Size:    0.677E-02 s, Total Time:      28.94 s
       Pressure Iterations:      4
       Maximum Velocity Error:  0.54E+00 on Mesh   2 at (   6   1  19)
       Maximum Pressure Error:  0.55E+02 on Mesh   2 at (  19  15  25)
       ---------------------------------------------------------------
       Mesh    1
       Max CFL number:  0.15E+00 at (  27,  17,  23)
       Max divergence:  0.20E+01 at (  16,  19,   1)
       Min divergence: -0.28E+01 at (  14,  17,   7)
       Max VN number:   0.66E-01 at (  26,  17,  24)
       Total Heat Release Rate:      104217607.875 kW
       Radiation Loss to Boundaries:  -9387539.960 kW
       Mesh    2
       Max CFL number:  0.86E+00 at (  13,  32,  19)
       Max divergence:  0.48E+01 at (   6,  10,  20)
       Min divergence: -0.46E+01 at (  20,  15,  17)
       Max VN number:   0.36E+00 at (  20,  23,   1)

       Time Step    3400   February 23, 2017  12:37:44
       Step Size:    0.619E-02 s, Total Time:      29.54 s
       Pressure Iterations:      4
       Maximum Velocity Error:  0.74E+00 on Mesh   2 at (   6   1  17)
       Maximum Pressure Error:  0.84E+02 on Mesh   2 at (  20   5  13)
       ---------------------------------------------------------------
       Mesh    1
       Max CFL number:  0.14E+00 at (  27,  15,  23)
       Max divergence:  0.19E+01 at (  16,  19,   1)
       Min divergence: -0.26E+01 at (  14,  17,  10)
       Max VN number:   0.59E-01 at (  28,  15,  23)
       Total Heat Release Rate:      108475793.399 kW
       Radiation Loss to Boundaries: -10346671.454 kW
       Mesh    2
       Max CFL number:  0.92E+00 at (  12,  32,  17)
       Max divergence:  0.50E+01 at (  20,  25,  22)
       Min divergence: -0.61E+01 at (  20,  15,  19)
       Max VN number:   0.38E+00 at (  20,  24,   1)

       Time Step    3500   February 23, 2017  12:38:42
       Step Size:    0.613E-02 s, Total Time:      30.14 s
       Pressure Iterations:      6
       Maximum Velocity Error:  0.30E+00 on Mesh   2 at (   6   1  18)
       Maximum Pressure Error:  0.10E+03 on Mesh   2 at (   8  18   5)
       ---------------------------------------------------------------
       Mesh    1
       Max CFL number:  0.15E+00 at (  27,  16,  23)
       Max divergence:  0.23E+01 at (  16,  19,   1)
       Min divergence: -0.25E+01 at (  13,  17,   6)
       Max VN number:   0.68E-01 at (  26,  15,  23)
       Total Heat Release Rate:      121240103.195 kW
       Radiation Loss to Boundaries: -11376663.787 kW
       Mesh    2
       Max CFL number:  0.85E+00 at (   6,  31,  20)
       Max divergence:  0.43E+01 at (  20,  23,  23)
       Min divergence: -0.45E+01 at (   8,  18,   4)
       Max VN number:   0.37E+00 at (   5,  33,  21)

       Time Step    3600   February 23, 2017  12:39:42
       Step Size:    0.546E-02 s, Total Time:      30.70 s
       Pressure Iterations:      6
       Maximum Velocity Error:  0.38E+00 on Mesh   2 at (   6   1  19)
       Maximum Pressure Error:  0.12E+03 on Mesh   2 at (  20   8  22)
       ---------------------------------------------------------------
       Mesh    1
       Max CFL number:  0.14E+00 at (  27,  16,  23)
       Max divergence:  0.20E+01 at (  16,  17,  25)
       Min divergence: -0.18E+01 at (  14,  16,   9)
       Max VN number:   0.52E-01 at (  26,  17,  24)
       Total Heat Release Rate:      130942234.965 kW
       Radiation Loss to Boundaries: -12969295.114 kW
       Mesh    2
       Max CFL number:  0.93E+00 at (   6,  33,  20)
       Max divergence:  0.60E+01 at (   7,  10,  20)
       Min divergence: -0.73E+01 at (  20,  15,  18)
       Max VN number:   0.34E+00 at (   7,  12,  20)

       Time Step    3700   February 23, 2017  12:40:41
       Step Size:    0.518E-02 s, Total Time:      31.23 s
       Pressure Iterations:     10
       Maximum Velocity Error:  0.22E+00 on Mesh   2 at (   6   1  18)
       Maximum Pressure Error:  0.33E+02 on Mesh   2 at (   5   1  18)
       ---------------------------------------------------------------
       Mesh    1
       Max CFL number:  0.14E+00 at (  27,  19,  23)
       Max divergence:  0.19E+01 at (  14,  18,   1)
       Min divergence: -0.36E+01 at (  14,  16,   5)
       Max VN number:   0.56E-01 at (  26,  18,  24)
       Total Heat Release Rate:      141062909.417 kW
       Radiation Loss to Boundaries: -14560831.854 kW
       Mesh    2
       Max CFL number:  0.97E+00 at (   6,  29,   6)
       Max divergence:  0.55E+01 at (   8,  10,  20)
       Min divergence: -0.52E+01 at (   6,  33,  20)
       Max VN number:   0.36E+00 at (   5,  30,  21)

       Time Step    3800   February 23, 2017  12:41:44
       Step Size:    0.469E-02 s, Total Time:      31.71 s
       Pressure Iterations:      6
       Maximum Velocity Error:  0.45E+00 on Mesh   2 at (   6  25   1)
       Maximum Pressure Error:  0.10E+03 on Mesh   2 at (   8  26   1)
       ---------------------------------------------------------------
       Mesh    1
       Max CFL number:  0.12E+00 at (  27,  18,  23)
       Max divergence:  0.17E+01 at (  14,  18,   1)
       Min divergence: -0.47E+01 at (  15,  16,   6)
       Max VN number:   0.51E-01 at (  26,  17,  24)
       Total Heat Release Rate:      141694034.949 kW
       Radiation Loss to Boundaries: -15048238.561 kW
       Mesh    2
       Max CFL number:  0.95E+00 at (   6,  33,  20)
       Max divergence:  0.67E+01 at (  20,  25,  25)
       Min divergence: -0.74E+01 at (   6,  33,  20)
       Max VN number:   0.32E+00 at (  20,  19,  24)

       Time Step    3900   February 23, 2017  12:42:47
       Step Size:    0.549E-02 s, Total Time:      32.17 s
       Pressure Iterations:     10
       Maximum Velocity Error:  0.27E+00 on Mesh   2 at (   6  23   1)
       Maximum Pressure Error:  0.33E+02 on Mesh   2 at (  20  15   3)
       ---------------------------------------------------------------
       Mesh    1
       Max CFL number:  0.14E+00 at (  27,  19,  23)
       Max divergence:  0.23E+01 at (  13,  18,  25)
       Min divergence: -0.81E+00 at (  11,  18,  25)
       Max VN number:   0.58E-01 at (  29,  19,  23)
       Total Heat Release Rate:      136139555.716 kW
       Radiation Loss to Boundaries:  -5547710.078 kW
       Mesh    2
       Max CFL number:  0.91E+00 at (  10,  30,  19)
       Max divergence:  0.63E+01 at (  20,  25,  23)
       Min divergence: -0.49E+01 at (  20,  31,  16)
       Max VN number:   0.41E+00 at (  20,  24,  22)

       Time Step    4000   February 23, 2017  12:43:43
       Step Size:    0.472E-02 s, Total Time:      32.68 s
       Pressure Iterations:      4
       Maximum Velocity Error:  0.64E+00 on Mesh   2 at (   6   1  17)
       Maximum Pressure Error:  0.91E+02 on Mesh   2 at (  19  12  25)
       ---------------------------------------------------------------
       Mesh    1
       Max CFL number:  0.13E+00 at (  27,  18,  23)
       Max divergence:  0.16E+01 at (  16,  14,   1)
       Min divergence: -0.78E+00 at (   9,  21,  25)
       Max VN number:   0.49E-01 at (  26,  19,  23)
       Total Heat Release Rate:      131285652.971 kW
       Radiation Loss to Boundaries:  -8640874.277 kW
       Mesh    2
       Max CFL number:  0.82E+00 at (   6,  33,  20)
       Max divergence:  0.64E+01 at (  20,  24,  23)
       Min divergence: -0.50E+01 at (  11,  32,  18)
       Max VN number:   0.32E+00 at (   5,  34,  15)

       Time Step    4100   February 23, 2017  12:44:38
       Step Size:    0.564E-02 s, Total Time:      33.18 s
       Pressure Iterations:      4
       Maximum Velocity Error:  0.85E+00 on Mesh   2 at (   6   1  16)
       Maximum Pressure Error:  0.12E+03 on Mesh   2 at (  20  28  25)
       ---------------------------------------------------------------
       Mesh    1
       Max CFL number:  0.15E+00 at (  26,  18,  23)
       Max divergence:  0.17E+01 at (  17,  20,   1)
       Min divergence: -0.11E+01 at (  21,  16,  25)
       Max VN number:   0.57E-01 at (  29,  15,  23)
       Total Heat Release Rate:      118244128.468 kW
       Radiation Loss to Boundaries:  -7586099.345 kW
       Mesh    2
       Max CFL number:  0.90E+00 at (   6,  32,  20)
       Max divergence:  0.65E+01 at (  20,  25,  22)
       Min divergence: -0.32E+01 at (   6,  32,  20)
       Max VN number:   0.35E+00 at (   7,  33,  20)

       Time Step    4200   February 23, 2017  12:45:30
       Step Size:    0.671E-02 s, Total Time:      33.76 s
       Pressure Iterations:      4
       Maximum Velocity Error:  0.53E+00 on Mesh   2 at (   6   1  17)
       Maximum Pressure Error:  0.12E+03 on Mesh   2 at (  19  15  21)
       ---------------------------------------------------------------
       Mesh    1
       Max CFL number:  0.17E+00 at (  26,  16,  23)
       Max divergence:  0.17E+01 at (  17,  20,   1)
       Min divergence: -0.73E+00 at (  25,  15,  24)
       Max VN number:   0.76E-01 at (  26,  15,  23)
       Total Heat Release Rate:       91850494.273 kW
       Radiation Loss to Boundaries:    376833.096 kW
       Mesh    2
       Max CFL number:  0.82E+00 at (   6,  15,  20)
       Max divergence:  0.64E+01 at (  20,  21,  24)
       Min divergence: -0.52E+01 at (  20,  17,  19)
       Max VN number:   0.37E+00 at (  20,  25,  23)

       Time Step    4300   February 23, 2017  12:46:26
       Step Size:    0.763E-02 s, Total Time:      34.44 s
       Pressure Iterations:      6
       Maximum Velocity Error:  0.33E+00 on Mesh   2 at (   6   1  13)
       Maximum Pressure Error:  0.18E+03 on Mesh   2 at (  20  21  17)
       ---------------------------------------------------------------
       Mesh    1
       Max CFL number:  0.13E+00 at (  27,  16,  23)
       Max divergence:  0.20E+01 at (  12,  18,   9)
       Min divergence: -0.65E+00 at (  16,  17,   5)
       Max VN number:   0.59E-01 at (  26,  17,  24)
       Total Heat Release Rate:       77794542.878 kW
       Radiation Loss to Boundaries:  -7420927.805 kW
       Mesh    2
       Max CFL number:  0.83E+00 at (  18,  15,  19)
       Max divergence:  0.17E+02 at (  20,  21,  19)
       Min divergence: -0.15E+02 at (  20,  21,  18)
       Max VN number:   0.61E+00 at (  20,  21,  19)

       Time Step    4400   February 23, 2017  12:47:24
       Step Size:    0.837E-02 s, Total Time:      35.26 s
       Pressure Iterations:     10
       Maximum Velocity Error:  0.15E+00 on Mesh   2 at (   6   1  14)
       Maximum Pressure Error:  0.95E+01 on Mesh   2 at (  20   1   8)
       ---------------------------------------------------------------
       Mesh    1
       Max CFL number:  0.14E+00 at (  27,  19,  21)
       Max divergence:  0.18E+01 at (  17,  20,   1)
       Min divergence: -0.71E+00 at (  16,  17,   5)
       Max VN number:   0.60E-01 at (  26,  19,  24)
       Total Heat Release Rate:       78716072.064 kW
       Radiation Loss to Boundaries:  -7471885.199 kW
       Mesh    2
       Max CFL number:  0.87E+00 at (  17,  27,  18)
       Max divergence:  0.60E+01 at (   7,  33,  20)
       Min divergence: -0.45E+01 at (   1,  11,   2)
       Max VN number:   0.37E+00 at (   5,  32,  21)

       Time Step    4500   February 23, 2017  12:48:20
       Step Size:    0.837E-02 s, Total Time:      36.09 s
       Pressure Iterations:      5
       Maximum Velocity Error:  0.33E+00 on Mesh   2 at (   6   1  13)
       Maximum Pressure Error:  0.12E+03 on Mesh   2 at (  19  30  20)
       ---------------------------------------------------------------
       Mesh    1
       Max CFL number:  0.13E+00 at (  27,  18,  23)
       Max divergence:  0.18E+01 at (  15,  19,   1)
       Min divergence: -0.66E+00 at (  17,  16,   2)
       Max VN number:   0.56E-01 at (  26,  19,  24)
       Total Heat Release Rate:       73507419.143 kW
       Radiation Loss to Boundaries:  -7015592.107 kW
       Mesh    2
       Max CFL number:  0.94E+00 at (   6,  31,  20)
       Max divergence:  0.88E+01 at (  20,  28,  19)
       Min divergence: -0.66E+01 at (  19,  28,  19)
       Max VN number:   0.38E+00 at (  19,  30,  20)

       Time Step    4600   February 23, 2017  12:49:17
       Step Size:    0.835E-02 s, Total Time:      36.93 s
       Pressure Iterations:      4
       Maximum Velocity Error:  0.67E+00 on Mesh   2 at (   6  28   1)
       Maximum Pressure Error:  0.11E+03 on Mesh   2 at (  20  33  18)
       ---------------------------------------------------------------
       Mesh    1
       Max CFL number:  0.14E+00 at (  27,  19,  23)
       Max divergence:  0.20E+01 at (  17,  15,   1)
       Min divergence: -0.13E+01 at (  14,  18,  10)
       Max VN number:   0.58E-01 at (  26,  18,  24)
       Total Heat Release Rate:       76987645.203 kW
       Radiation Loss to Boundaries:  -7850237.629 kW
       Mesh    2
       Max CFL number:  0.87E+00 at (   6,  33,   7)
       Max divergence:  0.49E+01 at (  20,  33,  15)
       Min divergence: -0.27E+01 at (  20,  13,  22)
       Max VN number:   0.40E+00 at (  20,  33,  15)

       Time Step    4700   February 23, 2017  12:50:17
       Step Size:    0.599E-02 s, Total Time:      37.70 s
       Pressure Iterations:     10
       Maximum Velocity Error:  0.11E+00 on Mesh   2 at (   6  39  10)
       Maximum Pressure Error:  0.39E+02 on Mesh   2 at (  20   5  24)
       ---------------------------------------------------------------
       Mesh    1
       Max CFL number:  0.11E+00 at (  27,  17,  23)
       Max divergence:  0.20E+01 at (  15,  16,   1)
       Min divergence: -0.97E+00 at (  18,  18,   3)
       Max VN number:   0.49E-01 at (  27,  17,  23)
       Total Heat Release Rate:       79404944.882 kW
       Radiation Loss to Boundaries:  -7666317.594 kW
       Mesh    2
       Max CFL number:  0.68E+00 at (   8,  30,  19)
       Max divergence:  0.46E+01 at (  20,  30,  25)
       Min divergence: -0.29E+01 at (  20,   5,  23)
       Max VN number:   0.29E+00 at (   6,  23,   5)

       Time Step    4800   February 23, 2017  12:51:20
       Step Size:    0.852E-02 s, Total Time:      38.49 s
       Pressure Iterations:      5
       Maximum Velocity Error:  0.11E+00 on Mesh   2 at (   6  40  15)
       Maximum Pressure Error:  0.20E+03 on Mesh   2 at (  20  28  21)
       ---------------------------------------------------------------
       Mesh    1
       Max CFL number:  0.14E+00 at (  27,  17,  23)
       Max divergence:  0.23E+01 at (  15,  16,   1)
       Min divergence: -0.41E+01 at (  19,  17,   6)
       Max VN number:   0.65E-01 at (  28,  17,  22)
       Total Heat Release Rate:       80026202.374 kW
       Radiation Loss to Boundaries:  -7012823.596 kW
       Mesh    2
       Max CFL number:  0.93E+00 at (  14,  11,  19)
       Max divergence:  0.22E+02 at (  20,  28,  21)
       Min divergence: -0.26E+02 at (  20,  28,  20)
       Max VN number:   0.92E+00 at (  20,  28,  21)

       Time Step    4900   February 23, 2017  12:52:27
       Step Size:    0.637E-02 s, Total Time:      39.21 s
       Pressure Iterations:     10
       Maximum Velocity Error:  0.17E+00 on Mesh   2 at (   6  38   4)
       Maximum Pressure Error:  0.39E+02 on Mesh   2 at (  20  23  19)
       ---------------------------------------------------------------
       Mesh    1
       Max CFL number:  0.11E+00 at (  27,  17,  23)
       Max divergence:  0.23E+01 at (  17,  14,   1)
       Min divergence: -0.91E+00 at (  20,  17,   2)
       Max VN number:   0.46E-01 at (  28,  15,  21)
       Total Heat Release Rate:       87864486.654 kW
       Radiation Loss to Boundaries:  -8184531.097 kW
       Mesh    2
       Max CFL number:  0.79E+00 at (  20,  24,  22)
       Max divergence:  0.18E+02 at (  20,  23,  19)
       Min divergence: -0.85E+01 at (  20,  23,  18)
       Max VN number:   0.65E+00 at (  20,  23,  19)

       Time Step    5000   February 23, 2017  12:53:28
       Step Size:    0.771E-02 s, Total Time:      39.97 s
       Pressure Iterations:     10
       Maximum Velocity Error:  0.10E+00 on Mesh   2 at (   6   1  19)
       Maximum Pressure Error:  0.49E+02 on Mesh   2 at (  20  10  10)
       ---------------------------------------------------------------
       Mesh    1
       Max CFL number:  0.17E+00 at (  27,  16,  23)
       Max divergence:  0.28E+01 at (  18,  17,   7)
       Min divergence: -0.90E+00 at (  19,  18,   1)
       Max VN number:   0.64E-01 at (  27,  15,  23)
       Total Heat Release Rate:       94709382.871 kW
       Radiation Loss to Boundaries:  -8378133.633 kW
       Mesh    2
       Max CFL number:  0.88E+00 at (   6,  32,   6)
       Max divergence:  0.98E+01 at (  20,  29,  14)
       Min divergence: -0.51E+01 at (   6,  31,  20)
       Max VN number:   0.45E+00 at (  20,  28,  17)

       Time Step    5004   February 23, 2017  12:53:31
       Step Size:    0.651E-02 s, Total Time:      40.00 s
       Pressure Iterations:     10
       Maximum Velocity Error:  0.18E+00 on Mesh   2 at (   6  39  14)
       Maximum Pressure Error:  0.33E+02 on Mesh   2 at (  20  10  10)
       ---------------------------------------------------------------
       Mesh    1
       Max CFL number:  0.14E+00 at (  27,  16,  23)
       Max divergence:  0.30E+01 at (  18,  17,  10)
       Min divergence: -0.89E+00 at (  19,  18,   1)
       Max VN number:   0.55E-01 at (  27,  15,  23)
       Total Heat Release Rate:       96547825.999 kW
       Radiation Loss to Boundaries: -10070672.887 kW
       Mesh    2
       Max CFL number:  0.75E+00 at (  12,  30,  17)
       Max divergence:  0.13E+02 at (  20,  28,  19)
       Min divergence: -0.51E+01 at (   6,  31,  20)
       Max VN number:   0.43E+00 at (  20,  28,  19)



 Time Stepping Wall Clock Time (s):     2968.939
 Total Elapsed Wall Clock Time (s):     2973.819

STOP: FDS completed successfully (CHID: room)
